
Version,
  22.2;                                   !- Version Identifier

Timestep,
  1;                                      !- Number of Timesteps per Hour

LifeCycleCost:Parameters,
  Life Cycle Cost Parameters,             !- Name
  EndOfYear,                              !- Discounting Convention
  ConstantDollar,                         !- Inflation Approach
  0.03,                                   !- Real Discount Rate
  ,                                       !- Nominal Discount Rate
  ,                                       !- Inflation
  ,                                       !- Base Date Month
  2011,                                   !- Base Date Year
  ,                                       !- Service Date Month
  2011,                                   !- Service Date Year
  25,                                     !- Length of Study Period in Years
  ,                                       !- Tax rate
  None;                                   !- Depreciation Method

LifeCycleCost:UsePriceEscalation,
  U.S. Avg  Commercial-Electricity,       !- Name
  Electricity,                            !- Resource
  2011,                                   !- Escalation Start Year
  January,                                !- Escalation Start Month
  0.9838,                                 !- Year Escalation 1
  0.9730,                                 !- Year Escalation 2
  0.9632,                                 !- Year Escalation 3
  0.9611,                                 !- Year Escalation 4
  0.9571,                                 !- Year Escalation 5
  0.9553,                                 !- Year Escalation 6
  0.9539,                                 !- Year Escalation 7
  0.9521,                                 !- Year Escalation 8
  0.9546,                                 !- Year Escalation 9
  0.9550,                                 !- Year Escalation 10
  0.9553,                                 !- Year Escalation 11
  0.9564,                                 !- Year Escalation 12
  0.9575,                                 !- Year Escalation 13
  0.9596,                                 !- Year Escalation 14
  0.9618,                                 !- Year Escalation 15
  0.9614,                                 !- Year Escalation 16
  0.9618,                                 !- Year Escalation 17
  0.9618,                                 !- Year Escalation 18
  0.9593,                                 !- Year Escalation 19
  0.9589,                                 !- Year Escalation 20
  0.9607,                                 !- Year Escalation 21
  0.9625,                                 !- Year Escalation 22
  0.9650,                                 !- Year Escalation 23
  0.9708,                                 !- Year Escalation 24
  0.9751,                                 !- Year Escalation 25
  0.9762,                                 !- Year Escalation 26
  0.9766,                                 !- Year Escalation 27
  0.9766,                                 !- Year Escalation 28
  0.9769,                                 !- Year Escalation 29
  0.9773;                                 !- Year Escalation 30

LifeCycleCost:UsePriceEscalation,
  U.S. Avg  Commercial-Distillate Oil,    !- Name
  FuelOilNo1,                             !- Resource
  2011,                                   !- Escalation Start Year
  January,                                !- Escalation Start Month
  0.9714,                                 !- Year Escalation 1
  0.9730,                                 !- Year Escalation 2
  0.9942,                                 !- Year Escalation 3
  1.0164,                                 !- Year Escalation 4
  1.0541,                                 !- Year Escalation 5
  1.0928,                                 !- Year Escalation 6
  1.1267,                                 !- Year Escalation 7
  1.1580,                                 !- Year Escalation 8
  1.1792,                                 !- Year Escalation 9
  1.1967,                                 !- Year Escalation 10
  1.2200,                                 !- Year Escalation 11
  1.2333,                                 !- Year Escalation 12
  1.2566,                                 !- Year Escalation 13
  1.2709,                                 !- Year Escalation 14
  1.2826,                                 !- Year Escalation 15
  1.2985,                                 !- Year Escalation 16
  1.3102,                                 !- Year Escalation 17
  1.3250,                                 !- Year Escalation 18
  1.3261,                                 !- Year Escalation 19
  1.3282,                                 !- Year Escalation 20
  1.3324,                                 !- Year Escalation 21
  1.3356,                                 !- Year Escalation 22
  1.3431,                                 !- Year Escalation 23
  1.3510,                                 !- Year Escalation 24
  1.3568,                                 !- Year Escalation 25
  1.3606,                                 !- Year Escalation 26
  1.3637,                                 !- Year Escalation 27
  1.3674,                                 !- Year Escalation 28
  1.3706,                                 !- Year Escalation 29
  1.3743;                                 !- Year Escalation 30

LifeCycleCost:UsePriceEscalation,
  U.S. Avg  Commercial-Residual Oil,      !- Name
  FuelOilNo2,                             !- Resource
  2011,                                   !- Escalation Start Year
  January,                                !- Escalation Start Month
  0.8469,                                 !- Year Escalation 1
  0.8257,                                 !- Year Escalation 2
  0.8681,                                 !- Year Escalation 3
  0.8988,                                 !- Year Escalation 4
  0.9289,                                 !- Year Escalation 5
  0.9604,                                 !- Year Escalation 6
  0.9897,                                 !- Year Escalation 7
  1.0075,                                 !- Year Escalation 8
  1.0314,                                 !- Year Escalation 9
  1.0554,                                 !- Year Escalation 10
  1.0861,                                 !- Year Escalation 11
  1.1278,                                 !- Year Escalation 12
  1.1497,                                 !- Year Escalation 13
  1.1620,                                 !- Year Escalation 14
  1.1743,                                 !- Year Escalation 15
  1.1852,                                 !- Year Escalation 16
  1.1948,                                 !- Year Escalation 17
  1.2037,                                 !- Year Escalation 18
  1.2071,                                 !- Year Escalation 19
  1.2119,                                 !- Year Escalation 20
  1.2139,                                 !- Year Escalation 21
  1.2194,                                 !- Year Escalation 22
  1.2276,                                 !- Year Escalation 23
  1.2365,                                 !- Year Escalation 24
  1.2420,                                 !- Year Escalation 25
  1.2461,                                 !- Year Escalation 26
  1.2509,                                 !- Year Escalation 27
  1.2550,                                 !- Year Escalation 28
  1.2591,                                 !- Year Escalation 29
  1.2638;                                 !- Year Escalation 30

LifeCycleCost:UsePriceEscalation,
  U.S. Avg  Commercial-Natural gas,       !- Name
  NaturalGas,                             !- Resource
  2011,                                   !- Escalation Start Year
  January,                                !- Escalation Start Month
  0.9823,                                 !- Year Escalation 1
  0.9557,                                 !- Year Escalation 2
  0.9279,                                 !- Year Escalation 3
  0.9257,                                 !- Year Escalation 4
  0.9346,                                 !- Year Escalation 5
  0.9412,                                 !- Year Escalation 6
  0.9512,                                 !- Year Escalation 7
  0.9645,                                 !- Year Escalation 8
  0.9856,                                 !- Year Escalation 9
  1.0067,                                 !- Year Escalation 10
  1.0222,                                 !- Year Escalation 11
  1.0410,                                 !- Year Escalation 12
  1.0610,                                 !- Year Escalation 13
  1.0787,                                 !- Year Escalation 14
  1.0942,                                 !- Year Escalation 15
  1.1098,                                 !- Year Escalation 16
  1.1220,                                 !- Year Escalation 17
  1.1308,                                 !- Year Escalation 18
  1.1386,                                 !- Year Escalation 19
  1.1486,                                 !- Year Escalation 20
  1.1619,                                 !- Year Escalation 21
  1.1763,                                 !- Year Escalation 22
  1.1918,                                 !- Year Escalation 23
  1.2118,                                 !- Year Escalation 24
  1.2284,                                 !- Year Escalation 25
  1.2439,                                 !- Year Escalation 26
  1.2605,                                 !- Year Escalation 27
  1.2772,                                 !- Year Escalation 28
  1.2938,                                 !- Year Escalation 29
  1.3115;                                 !- Year Escalation 30

LifeCycleCost:UsePriceEscalation,
  U.S. Avg  Commercial-Coal,              !- Name
  Coal,                                   !- Resource
  2011,                                   !- Escalation Start Year
  January,                                !- Escalation Start Month
  0.9970,                                 !- Year Escalation 1
  1.0089,                                 !- Year Escalation 2
  1.0089,                                 !- Year Escalation 3
  0.9941,                                 !- Year Escalation 4
  0.9941,                                 !- Year Escalation 5
  1.0000,                                 !- Year Escalation 6
  1.0030,                                 !- Year Escalation 7
  1.0059,                                 !- Year Escalation 8
  1.0089,                                 !- Year Escalation 9
  1.0119,                                 !- Year Escalation 10
  1.0148,                                 !- Year Escalation 11
  1.0178,                                 !- Year Escalation 12
  1.0208,                                 !- Year Escalation 13
  1.0267,                                 !- Year Escalation 14
  1.0297,                                 !- Year Escalation 15
  1.0356,                                 !- Year Escalation 16
  1.0415,                                 !- Year Escalation 17
  1.0534,                                 !- Year Escalation 18
  1.0564,                                 !- Year Escalation 19
  1.0593,                                 !- Year Escalation 20
  1.0653,                                 !- Year Escalation 21
  1.0712,                                 !- Year Escalation 22
  1.0742,                                 !- Year Escalation 23
  1.0801,                                 !- Year Escalation 24
  1.0831,                                 !- Year Escalation 25
  1.0831,                                 !- Year Escalation 26
  1.0861,                                 !- Year Escalation 27
  1.0890,                                 !- Year Escalation 28
  1.0920,                                 !- Year Escalation 29
  1.0950;                                 !- Year Escalation 30

Building,
  DOE Ref 1980-2004|MediumOffice,         !- Name
  0,                                      !- North Axis {deg}
  City,                                   !- Terrain
  0.04,                                   !- Loads Convergence Tolerance Value {W}
  0.2,                                    !- Temperature Convergence Tolerance Value {deltaC}
  FullInteriorAndExterior,                !- Solar Distribution
  25,                                     !- Maximum Number of Warmup Days
  6;                                      !- Minimum Number of Warmup Days

Zone,
  Zone Office WholeBuilding - Md Office A  - Story Ground, !- Name
  -0,                                     !- Direction of Relative North {deg}
  -17.878956405463,                       !- X Origin {m}
  -14.9673042703087,                      !- Y Origin {m}
  0,                                      !- Z Origin {m}
  ,                                       !- Type
  1,                                      !- Multiplier
  ,                                       !- Ceiling Height {m}
  ,                                       !- Volume {m3}
  ,                                       !- Floor Area {m2}
  ,                                       !- Zone Inside Convection Algorithm
  ,                                       !- Zone Outside Convection Algorithm
  Yes;                                    !- Part of Total Floor Area

Space,
  Office WholeBuilding - Md Office A  - Story Ground, !- Name
  Zone Office WholeBuilding - Md Office A  - Story Ground, !- Zone Name
  ,                                       !- Ceiling Height {m}
  ,                                       !- Volume {m3}
  ,                                       !- Floor Area {m2}
  Office WholeBuilding - Md Office - DOE Ref 1980-2004; !- Space Type

SpaceList,
  Office WholeBuilding - Md Office - DOE Ref 1980-2004, !- Name
  Office WholeBuilding - Md Office A end_a - Story Ground, !- Space Name 1
  Office WholeBuilding - Md Office B end_a - Story Ground, !- Space Name 2
  Office WholeBuilding - Md Office C end_a - Story Ground, !- Space Name 3
  Office WholeBuilding - Md Office A  - Story Ground, !- Space Name 4
  Office WholeBuilding - Md Office B  - Story Ground, !- Space Name 5
  Office WholeBuilding - Md Office A end_b - Story Ground, !- Space Name 6
  Office WholeBuilding - Md Office B end_b - Story Ground, !- Space Name 7
  Office WholeBuilding - Md Office C  - Story Ground, !- Space Name 8
  Office WholeBuilding - Md Office C end_b - Story Ground; !- Space Name 9

Lights,
  Office WholeBuilding - Md Office Lights, !- Name
  Office WholeBuilding - Md Office - DOE Ref 1980-2004, !- Zone or ZoneList or Space or SpaceList Name
  Office Bldg Light,                      !- Schedule Name
  Watts/Area,                             !- Design Level Calculation Method
  ,                                       !- Lighting Level {W}
  10,                                     !- Watts per Zone Floor Area {W/m2}
  ,                                       !- Watts per Person {W/person}
  0.4,                                    !- Return Air Fraction
  0.4,                                    !- Fraction Radiant
  0.2,                                    !- Fraction Visible
  0,                                      !- Fraction Replaceable
  General;                                !- End-Use Subcategory

ScheduleTypeLimits,
  Fractional,                             !- Name
  0,                                      !- Lower Limit Value {BasedOnField A3}
  1,                                      !- Upper Limit Value {BasedOnField A3}
  Continuous;                             !- Numeric Type

Schedule:Day:Interval,
  Office Bldg Light Sun Day,              !- Name
  Fractional,                             !- Schedule Type Limits Name
  Average,                                !- Interpolate to Timestep
  24:00,                                  !- Time 1 {hh:mm}
  0.05;                                   !- Value Until Time 1

Schedule:Day:Interval,
  Schedule Day 1,                         !- Name
  Fractional,                             !- Schedule Type Limits Name
  No,                                     !- Interpolate to Timestep
  06:00,                                  !- Time 1 {hh:mm}
  0.103679285230352,                      !- Value Until Time 1
  07:00,                                  !- Time 2 {hh:mm}
  0.301235687669377,                      !- Value Until Time 2
  09:00,                                  !- Time 3 {hh:mm}
  0.732933011517615,                      !- Value Until Time 3
  11:00,                                  !- Time 4 {hh:mm}
  0.831711212737127,                      !- Value Until Time 4
  16:00,                                  !- Time 5 {hh:mm}
  0.919514058265583,                      !- Value Until Time 5
  19:00,                                  !- Time 6 {hh:mm}
  0.380502145438121,                      !- Value Until Time 6
  20:00,                                  !- Time 7 {hh:mm}
  0.286601880081301,                      !- Value Until Time 7
  24:00,                                  !- Time 8 {hh:mm}
  0.0963623814363144;                     !- Value Until Time 8

Schedule:Day:Interval,
  Schedule Day 19,                        !- Name
  Fractional,                             !- Schedule Type Limits Name
  No,                                     !- Interpolate to Timestep
  01:00,                                  !- Time 1 {hh:mm}
  0.103679285230352,                      !- Value Until Time 1
  02:00,                                  !- Time 2 {hh:mm}
  0.103679285230352,                      !- Value Until Time 2
  03:00,                                  !- Time 3 {hh:mm}
  0.103679285230352,                      !- Value Until Time 3
  04:00,                                  !- Time 4 {hh:mm}
  0.103679285230352,                      !- Value Until Time 4
  05:00,                                  !- Time 5 {hh:mm}
  0.103679285230352,                      !- Value Until Time 5
  06:00,                                  !- Time 6 {hh:mm}
  0.103679285230352,                      !- Value Until Time 6
  07:00,                                  !- Time 7 {hh:mm}
  0.301235687669377,                      !- Value Until Time 7
  08:00,                                  !- Time 8 {hh:mm}
  0.732933011517615,                      !- Value Until Time 8
  09:00,                                  !- Time 9 {hh:mm}
  0.732933011517615,                      !- Value Until Time 9
  10:00,                                  !- Time 10 {hh:mm}
  0,                                      !- Value Until Time 10
  11:00,                                  !- Time 11 {hh:mm}
  0,                                      !- Value Until Time 11
  12:00,                                  !- Time 12 {hh:mm}
  0,                                      !- Value Until Time 12
  13:00,                                  !- Time 13 {hh:mm}
  0,                                      !- Value Until Time 13
  14:00,                                  !- Time 14 {hh:mm}
  0.919514058265583,                      !- Value Until Time 14
  15:00,                                  !- Time 15 {hh:mm}
  0.919514058265583,                      !- Value Until Time 15
  16:00,                                  !- Time 16 {hh:mm}
  0.919514058265583,                      !- Value Until Time 16
  17:00,                                  !- Time 17 {hh:mm}
  0.380502145438121,                      !- Value Until Time 17
  18:00,                                  !- Time 18 {hh:mm}
  0.380502145438121,                      !- Value Until Time 18
  19:00,                                  !- Time 19 {hh:mm}
  0.380502145438121,                      !- Value Until Time 19
  20:00,                                  !- Time 20 {hh:mm}
  0.286601880081301,                      !- Value Until Time 20
  21:00,                                  !- Time 21 {hh:mm}
  0.0963623814363144,                     !- Value Until Time 21
  22:00,                                  !- Time 22 {hh:mm}
  0.0963623814363144,                     !- Value Until Time 22
  23:00,                                  !- Time 23 {hh:mm}
  0.0963623814363144,                     !- Value Until Time 23
  24:00,                                  !- Time 24 {hh:mm}
  0.0963623814363144;                     !- Value Until Time 24

Schedule:Week:Daily,
  Office Bldg Light Week Rule - Jan1-Jun17, !- Name
  Office Bldg Light Sun Day,              !- Sunday Schedule:Day Name
  Schedule Day 1,                         !- Monday Schedule:Day Name
  Schedule Day 1,                         !- Tuesday Schedule:Day Name
  Schedule Day 1,                         !- Wednesday Schedule:Day Name
  Schedule Day 1,                         !- Thursday Schedule:Day Name
  Schedule Day 1,                         !- Friday Schedule:Day Name
  Office Bldg Light Sun Day,              !- Saturday Schedule:Day Name
  Office Bldg Light Default,              !- Holiday Schedule:Day Name
  Office Bldg Light Summer Design Day,    !- SummerDesignDay Schedule:Day Name
  Office Bldg Light Winter Design Day,    !- WinterDesignDay Schedule:Day Name
  Office Bldg Light Default,              !- CustomDay1 Schedule:Day Name
  Office Bldg Light Default;              !- CustomDay2 Schedule:Day Name

Schedule:Week:Daily,
  Office Bldg Light Week Rule - Jun18-Jun24, !- Name
  Office Bldg Light Sun Day,              !- Sunday Schedule:Day Name
  Schedule Day 1,                         !- Monday Schedule:Day Name
  Schedule Day 1,                         !- Tuesday Schedule:Day Name
  Schedule Day 1,                         !- Wednesday Schedule:Day Name
  Schedule Day 1,                         !- Thursday Schedule:Day Name
  Schedule Day 19,                        !- Friday Schedule:Day Name
  Office Bldg Light Sun Day,              !- Saturday Schedule:Day Name
  Office Bldg Light Default,              !- Holiday Schedule:Day Name
  Office Bldg Light Summer Design Day,    !- SummerDesignDay Schedule:Day Name
  Office Bldg Light Winter Design Day,    !- WinterDesignDay Schedule:Day Name
  Office Bldg Light Default,              !- CustomDay1 Schedule:Day Name
  Office Bldg Light Default;              !- CustomDay2 Schedule:Day Name

Schedule:Week:Daily,
  Office Bldg Light Week Rule - Jun25-Dec31, !- Name
  Office Bldg Light Sun Day,              !- Sunday Schedule:Day Name
  Schedule Day 1,                         !- Monday Schedule:Day Name
  Schedule Day 1,                         !- Tuesday Schedule:Day Name
  Schedule Day 1,                         !- Wednesday Schedule:Day Name
  Schedule Day 1,                         !- Thursday Schedule:Day Name
  Schedule Day 1,                         !- Friday Schedule:Day Name
  Office Bldg Light Sun Day,              !- Saturday Schedule:Day Name
  Office Bldg Light Default,              !- Holiday Schedule:Day Name
  Office Bldg Light Summer Design Day,    !- SummerDesignDay Schedule:Day Name
  Office Bldg Light Winter Design Day,    !- WinterDesignDay Schedule:Day Name
  Office Bldg Light Default,              !- CustomDay1 Schedule:Day Name
  Office Bldg Light Default;              !- CustomDay2 Schedule:Day Name

Schedule:Year,
  Office Bldg Light,                      !- Name
  Fractional,                             !- Schedule Type Limits Name
  Office Bldg Light Week Rule - Jan1-Jun17, !- Schedule:Week Name 1
  1,                                      !- Start Month 1
  1,                                      !- Start Day 1
  6,                                      !- End Month 1
  17,                                     !- End Day 1
  Office Bldg Light Week Rule - Jun18-Jun24, !- Schedule:Week Name 2
  6,                                      !- Start Month 2
  18,                                     !- Start Day 2
  6,                                      !- End Month 2
  24,                                     !- End Day 2
  Office Bldg Light Week Rule - Jun25-Dec31, !- Schedule:Week Name 3
  6,                                      !- Start Month 3
  25,                                     !- Start Day 3
  12,                                     !- End Month 3
  31;                                     !- End Day 3

Schedule:Day:Interval,
  Office Bldg Light Default,              !- Name
  Fractional,                             !- Schedule Type Limits Name
  Average,                                !- Interpolate to Timestep
  00:10,                                  !- Time 1 {hh:mm}
  0.700000000000003,                      !- Value Until Time 1
  00:20,                                  !- Time 2 {hh:mm}
  0.800000000000004,                      !- Value Until Time 2
  00:30,                                  !- Time 3 {hh:mm}
  0.9,                                    !- Value Until Time 3
  00:40,                                  !- Time 4 {hh:mm}
  0.266666666666666,                      !- Value Until Time 4
  00:50,                                  !- Time 5 {hh:mm}
  0.233333333333333,                      !- Value Until Time 5
  01:00,                                  !- Time 6 {hh:mm}
  0.2,                                    !- Value Until Time 6
  01:30,                                  !- Time 7 {hh:mm}
  0.2,                                    !- Value Until Time 7
  01:40,                                  !- Time 8 {hh:mm}
  0.1875,                                 !- Value Until Time 8
  01:50,                                  !- Time 9 {hh:mm}
  0.175,                                  !- Value Until Time 9
  02:00,                                  !- Time 10 {hh:mm}
  0.1625,                                 !- Value Until Time 10
  02:10,                                  !- Time 11 {hh:mm}
  0.15,                                   !- Value Until Time 11
  02:20,                                  !- Time 12 {hh:mm}
  0.1375,                                 !- Value Until Time 12
  02:30,                                  !- Time 13 {hh:mm}
  0.124999999999999,                      !- Value Until Time 13
  02:40,                                  !- Time 14 {hh:mm}
  0.112499999999999,                      !- Value Until Time 14
  02:50,                                  !- Time 15 {hh:mm}
  0.0999999999999993,                     !- Value Until Time 15
  03:00,                                  !- Time 16 {hh:mm}
  0.0874999999999992,                     !- Value Until Time 16
  03:10,                                  !- Time 17 {hh:mm}
  0.0749999999999991,                     !- Value Until Time 17
  03:20,                                  !- Time 18 {hh:mm}
  0.062499999999999,                      !- Value Until Time 18
  03:30,                                  !- Time 19 {hh:mm}
  0.05,                                   !- Value Until Time 19
  20:00,                                  !- Time 20 {hh:mm}
  0.05,                                   !- Value Until Time 20
  20:10,                                  !- Time 21 {hh:mm}
  0.0541666666666667,                     !- Value Until Time 21
  20:20,                                  !- Time 22 {hh:mm}
  0.0583333333333334,                     !- Value Until Time 22
  20:30,                                  !- Time 23 {hh:mm}
  0.0625000000000001,                     !- Value Until Time 23
  20:40,                                  !- Time 24 {hh:mm}
  0.0666666666666668,                     !- Value Until Time 24
  20:50,                                  !- Time 25 {hh:mm}
  0.0708333333333335,                     !- Value Until Time 25
  21:00,                                  !- Time 26 {hh:mm}
  0.0750000000000002,                     !- Value Until Time 26
  21:10,                                  !- Time 27 {hh:mm}
  0.0791666666666669,                     !- Value Until Time 27
  21:20,                                  !- Time 28 {hh:mm}
  0.0833333333333336,                     !- Value Until Time 28
  21:30,                                  !- Time 29 {hh:mm}
  0.0875000000000003,                     !- Value Until Time 29
  21:40,                                  !- Time 30 {hh:mm}
  0.091666666666667,                      !- Value Until Time 30
  21:50,                                  !- Time 31 {hh:mm}
  0.0958333333333337,                     !- Value Until Time 31
  22:00,                                  !- Time 32 {hh:mm}
  0.1,                                    !- Value Until Time 32
  22:10,                                  !- Time 33 {hh:mm}
  0.166666666666667,                      !- Value Until Time 33
  22:20,                                  !- Time 34 {hh:mm}
  0.233333333333334,                      !- Value Until Time 34
  22:30,                                  !- Time 35 {hh:mm}
  0.3,                                    !- Value Until Time 35
  23:30,                                  !- Time 36 {hh:mm}
  0.3,                                    !- Value Until Time 36
  23:40,                                  !- Time 37 {hh:mm}
  0.400000000000001,                      !- Value Until Time 37
  23:50,                                  !- Time 38 {hh:mm}
  0.500000000000001,                      !- Value Until Time 38
  24:00,                                  !- Time 39 {hh:mm}
  0.600000000000002;                      !- Value Until Time 39

Schedule:Day:Interval,
  Office Bldg Light Summer Design Day,    !- Name
  Fractional,                             !- Schedule Type Limits Name
  No,                                     !- Interpolate to Timestep
  24:00,                                  !- Time 1 {hh:mm}
  1;                                      !- Value Until Time 1

Schedule:Day:Interval,
  Office Bldg Light Winter Design Day,    !- Name
  Fractional,                             !- Schedule Type Limits Name
  No,                                     !- Interpolate to Timestep
  24:00,                                  !- Time 1 {hh:mm}