
Version,
  22.2;                                   !- Version Identifier

Timestep,
  6;                                      !- Number of Timesteps per Hour

LifeCycleCost:Parameters,
  Life Cycle Cost Parameters,             !- Name
  EndOfYear,                              !- Discounting Convention
  ConstantDollar,                         !- Inflation Approach
  0.03,                                   !- Real Discount Rate
  ,                                       !- Nominal Discount Rate
  ,                                       !- Inflation
  ,                                       !- Base Date Month
  2011,                                   !- Base Date Year
  ,                                       !- Service Date Month
  2011,                                   !- Service Date Year
  25,                                     !- Length of Study Period in Years
  ,                                       !- Tax rate
  None;                                   !- Depreciation Method

LifeCycleCost:UsePriceEscalation,
  U.S. Avg  Commercial-Electricity,       !- Name
  Electricity,                            !- Resource
  2011,                                   !- Escalation Start Year
  January,                                !- Escalation Start Month
  0.9838,                                 !- Year Escalation 1
  0.9730,                                 !- Year Escalation 2
  0.9632,                                 !- Year Escalation 3
  0.9611,                                 !- Year Escalation 4
  0.9571,                                 !- Year Escalation 5
  0.9553,                                 !- Year Escalation 6
  0.9539,                                 !- Year Escalation 7
  0.9521,                                 !- Year Escalation 8
  0.9546,                                 !- Year Escalation 9
  0.9550,                                 !- Year Escalation 10
  0.9553,                                 !- Year Escalation 11
  0.9564,                                 !- Year Escalation 12
  0.9575,                                 !- Year Escalation 13
  0.9596,                                 !- Year Escalation 14
  0.9618,                                 !- Year Escalation 15
  0.9614,                                 !- Year Escalation 16
  0.9618,                                 !- Year Escalation 17
  0.9618,                                 !- Year Escalation 18
  0.9593,                                 !- Year Escalation 19
  0.9589,                                 !- Year Escalation 20
  0.9607,                                 !- Year Escalation 21
  0.9625,                                 !- Year Escalation 22
  0.9650,                                 !- Year Escalation 23
  0.9708,                                 !- Year Escalation 24
  0.9751,                                 !- Year Escalation 25
  0.9762,                                 !- Year Escalation 26
  0.9766,                                 !- Year Escalation 27
  0.9766,                                 !- Year Escalation 28
  0.9769,                                 !- Year Escalation 29
  0.9773;                                 !- Year Escalation 30

LifeCycleCost:UsePriceEscalation,
  U.S. Avg  Commercial-Distillate Oil,    !- Name
  FuelOilNo1,                             !- Resource
  2011,                                   !- Escalation Start Year
  January,                                !- Escalation Start Month
  0.9714,                                 !- Year Escalation 1
  0.9730,                                 !- Year Escalation 2
  0.9942,                                 !- Year Escalation 3
  1.0164,                                 !- Year Escalation 4
  1.0541,                                 !- Year Escalation 5
  1.0928,                                 !- Year Escalation 6
  1.1267,                                 !- Year Escalation 7
  1.1580,                                 !- Year Escalation 8
  1.1792,                                 !- Year Escalation 9
  1.1967,                                 !- Year Escalation 10
  1.2200,                                 !- Year Escalation 11
  1.2333,                                 !- Year Escalation 12
  1.2566,                                 !- Year Escalation 13
  1.2709,                                 !- Year Escalation 14
  1.2826,                                 !- Year Escalation 15
  1.2985,                                 !- Year Escalation 16
  1.3102,                                 !- Year Escalation 17
  1.3250,                                 !- Year Escalation 18
  1.3261,                                 !- Year Escalation 19
  1.3282,                                 !- Year Escalation 20
  1.3324,                                 !- Year Escalation 21
  1.3356,                                 !- Year Escalation 22
  1.3431,                                 !- Year Escalation 23
  1.3510,                                 !- Year Escalation 24
  1.3568,                                 !- Year Escalation 25
  1.3606,                                 !- Year Escalation 26
  1.3637,                                 !- Year Escalation 27
  1.3674,                                 !- Year Escalation 28
  1.3706,                                 !- Year Escalation 29
  1.3743;                                 !- Year Escalation 30

LifeCycleCost:UsePriceEscalation,
  U.S. Avg  Commercial-Residual Oil,      !- Name
  FuelOilNo2,                             !- Resource
  2011,                                   !- Escalation Start Year
  January,                                !- Escalation Start Month
  0.8469,                                 !- Year Escalation 1
  0.8257,                                 !- Year Escalation 2
  0.8681,                                 !- Year Escalation 3
  0.8988,                                 !- Year Escalation 4
  0.9289,                                 !- Year Escalation 5
  0.9604,                                 !- Year Escalation 6
  0.9897,                                 !- Year Escalation 7
  1.0075,                                 !- Year Escalation 8
  1.0314,                                 !- Year Escalation 9
  1.0554,                                 !- Year Escalation 10
  1.0861,                                 !- Year Escalation 11
  1.1278,                                 !- Year Escalation 12
  1.1497,                                 !- Year Escalation 13
  1.1620,                                 !- Year Escalation 14
  1.1743,                                 !- Year Escalation 15
  1.1852,                                 !- Year Escalation 16
  1.1948,                                 !- Year Escalation 17
  1.2037,                                 !- Year Escalation 18
  1.2071,                                 !- Year Escalation 19
  1.2119,                                 !- Year Escalation 20
  1.2139,                                 !- Year Escalation 21
  1.2194,                                 !- Year Escalation 22
  1.2276,                                 !- Year Escalation 23
  1.2365,                                 !- Year Escalation 24
  1.2420,                                 !- Year Escalation 25
  1.2461,                                 !- Year Escalation 26
  1.2509,                                 !- Year Escalation 27
  1.2550,                                 !- Year Escalation 28
  1.2591,                                 !- Year Escalation 29
  1.2638;                                 !- Year Escalation 30

LifeCycleCost:UsePriceEscalation,
  U.S. Avg  Commercial-Natural gas,       !- Name
  NaturalGas,                             !- Resource
  2011,                                   !- Escalation Start Year
  January,                                !- Escalation Start Month
  0.9823,                                 !- Year Escalation 1
  0.9557,                                 !- Year Escalation 2
  0.9279,                                 !- Year Escalation 3
  0.9257,                                 !- Year Escalation 4
  0.9346,                                 !- Year Escalation 5
  0.9412,                                 !- Year Escalation 6
  0.9512,                                 !- Year Escalation 7
  0.9645,                                 !- Year Escalation 8
  0.9856,                                 !- Year Escalation 9
  1.0067,                                 !- Year Escalation 10
  1.0222,                                 !- Year Escalation 11
  1.0410,                                 !- Year Escalation 12
  1.0610,                                 !- Year Escalation 13
  1.0787,                                 !- Year Escalation 14
  1.0942,                                 !- Year Escalation 15
  1.1098,                                 !- Year Escalation 16
  1.1220,                                 !- Year Escalation 17
  1.1308,                                 !- Year Escalation 18
  1.1386,                                 !- Year Escalation 19
  1.1486,                                 !- Year Escalation 20
  1.1619,                                 !- Year Escalation 21
  1.1763,                                 !- Year Escalation 22
  1.1918,                                 !- Year Escalation 23
  1.2118,                                 !- Year Escalation 24
  1.2284,                                 !- Year Escalation 25
  1.2439,                                 !- Year Escalation 26
  1.2605,                                 !- Year Escalation 27
  1.2772,                                 !- Year Escalation 28
  1.2938,                                 !- Year Escalation 29
  1.3115;                                 !- Year Escalation 30

LifeCycleCost:UsePriceEscalation,
  U.S. Avg  Commercial-Coal,              !- Name
  Coal,                                   !- Resource
  2011,                                   !- Escalation Start Year
  January,                                !- Escalation Start Month
  0.9970,                                 !- Year Escalation 1
  1.0089,                                 !- Year Escalation 2
  1.0089,                                 !- Year Escalation 3
  0.9941,                                 !- Year Escalation 4
  0.9941,                                 !- Year Escalation 5
  1.0000,                                 !- Year Escalation 6
  1.0030,                                 !- Year Escalation 7
  1.0059,                                 !- Year Escalation 8
  1.0089,                                 !- Year Escalation 9
  1.0119,                                 !- Year Escalation 10
  1.0148,                                 !- Year Escalation 11
  1.0178,                                 !- Year Escalation 12
  1.0208,                                 !- Year Escalation 13
  1.0267,                                 !- Year Escalation 14
  1.0297,                                 !- Year Escalation 15
  1.0356,                                 !- Year Escalation 16
  1.0415,                                 !- Year Escalation 17
  1.0534,                                 !- Year Escalation 18
  1.0564,                                 !- Year Escalation 19
  1.0593,                                 !- Year Escalation 20
  1.0653,                                 !- Year Escalation 21
  1.0712,                                 !- Year Escalation 22
  1.0742,                                 !- Year Escalation 23
  1.0801,                                 !- Year Escalation 24
  1.0831,                                 !- Year Escalation 25
  1.0831,                                 !- Year Escalation 26
  1.0861,                                 !- Year Escalation 27
  1.0890,                                 !- Year Escalation 28
  1.0920,                                 !- Year Escalation 29
  1.0950;                                 !- Year Escalation 30

Building,
  90.1-2010|SmallOffice,                  !- Name
  0,                                      !- North Axis {deg}
  City,                                   !- Terrain
  0.04,                                   !- Loads Convergence Tolerance Value {W}
  0.2,                                    !- Temperature Convergence Tolerance Value {deltaC}
  FullInteriorAndExterior,                !- Solar Distribution
  25,                                     !- Maximum Number of Warmup Days
  6;                                      !- Minimum Number of Warmup Days

Zone,
  Zone Office WholeBuilding - Sm Office 2 A  - Story Ground, !- Name
  -0,                                     !- Direction of Relative North {deg}
  -14.2325791231817,                      !- X Origin {m}
  -12.5363860821211,                      !- Y Origin {m}
  0,                                      !- Z Origin {m}
  ,                                       !- Type
  1,                                      !- Multiplier
  ,                                       !- Ceiling Height {m}
  ,                                       !- Volume {m3}
  ,                                       !- Floor Area {m2}
  ,                                       !- Zone Inside Convection Algorithm
  ,                                       !- Zone Outside Convection Algorithm
  Yes;                                    !- Part of Total Floor Area

Space,
  Office WholeBuilding - Sm Office 2 A  - Story Ground, !- Name
  Zone Office WholeBuilding - Sm Office 2 A  - Story Ground, !- Zone Name
  ,                                       !- Ceiling Height {m}
  ,                                       !- Volume {m3}
  ,                                       !- Floor Area {m2}
  Office WholeBuilding - Sm Office 2 - 90.1-2010; !- Space Type

SpaceList,
  Office WholeBuilding - Sm Office 2 - 90.1-2010, !- Name
  Office WholeBuilding - Sm Office 2 A end_a - Story Ground, !- Space Name 1
  Office WholeBuilding - Sm Office 2 C end_a - Story Ground, !- Space Name 2
  Office WholeBuilding - Sm Office 2 A  - Story Ground, !- Space Name 3
  Office WholeBuilding - Sm Office 2 B end_a - Story Ground, !- Space Name 4
  Office WholeBuilding - Sm Office 2 B  - Story Ground, !- Space Name 5
  Office WholeBuilding - Sm Office 2 C  - Story Ground, !- Space Name 6
  Office WholeBuilding - Sm Office 2 B end_b - Story Ground, !- Space Name 7
  Office WholeBuilding - Sm Office 2 A end_b - Story Ground, !- Space Name 8
  Office WholeBuilding - Sm Office 2 C end_b - Story Ground; !- Space Name 9

Lights,
  Office WholeBuilding - Sm Office 2 Lights, !- Name
  Office WholeBuilding - Sm Office 2 - 90.1-2010, !- Zone or ZoneList or Space or SpaceList Name
  OfficeSmall BLDG_LIGHT_SCH_2010,        !- Schedule Name
  Watts/Area,                             !- Design Level Calculation Method
  ,                                       !- Lighting Level {W}
  9.68751937503875,                       !- Watts per Zone Floor Area {W/m2}
  ,                                       !- Watts per Person {W/person}
  0,                                      !- Return Air Fraction
  0.7,                                    !- Fraction Radiant
  0.2,                                    !- Fraction Visible
  1,                                      !- Fraction Replaceable
  General;                                !- End-Use Subcategory

ScheduleTypeLimits,
  Fractional,                             !- Name
  0,                                      !- Lower Limit Value {BasedOnField A3}
  1,                                      !- Upper Limit Value {BasedOnField A3}
  Continuous;                             !- Numeric Type

Schedule:Day:Interval,
  OfficeSmall BLDG_LIGHT_SCH_2010 Default, !- Name
  Fractional,                             !- Schedule Type Limits Name
  Average,                                !- Interpolate to Timestep
  04:30,                                  !- Time 1 {hh:mm}
  0.18,                                   !- Value Until Time 1
  04:40,                                  !- Time 2 {hh:mm}
  0.188333333333333,                      !- Value Until Time 2
  04:50,                                  !- Time 3 {hh:mm}
  0.196666666666667,                      !- Value Until Time 3
  05:00,                                  !- Time 4 {hh:mm}
  0.205,                                  !- Value Until Time 4
  05:10,                                  !- Time 5 {hh:mm}
  0.213333333333333,                      !- Value Until Time 5
  05:20,                                  !- Time 6 {hh:mm}
  0.221666666666667,                      !- Value Until Time 6
  05:30,                                  !- Time 7 {hh:mm}
  0.23,                                   !- Value Until Time 7
  05:40,                                  !- Time 8 {hh:mm}
  0.222843166666667,                      !- Value Until Time 8
  05:50,                                  !- Time 9 {hh:mm}
  0.215686333333333,                      !- Value Until Time 9
  06:00,                                  !- Time 10 {hh:mm}
  0.2085295,                              !- Value Until Time 10
  06:10,                                  !- Time 11 {hh:mm}
  0.201372666666667,                      !- Value Until Time 11
  06:20,                                  !- Time 12 {hh:mm}
  0.194215833333333,                      !- Value Until Time 12
  06:30,                                  !- Time 13 {hh:mm}
  0.187059,                               !- Value Until Time 13
  06:40,                                  !- Time 14 {hh:mm}
  0.2128135,                              !- Value Until Time 14
  06:50,                                  !- Time 15 {hh:mm}
  0.238568,                               !- Value Until Time 15
  07:00,                                  !- Time 16 {hh:mm}
  0.2643225,                              !- Value Until Time 16
  07:10,                                  !- Time 17 {hh:mm}
  0.290077,                               !- Value Until Time 17
  07:20,                                  !- Time 18 {hh:mm}
  0.3158315,                              !- Value Until Time 18
  07:30,                                  !- Time 19 {hh:mm}
  0.341586,                               !- Value Until Time 19
  07:40,                                  !- Time 20 {hh:mm}
  0.40665,                                !- Value Until Time 20
  07:50,                                  !- Time 21 {hh:mm}
  0.471714,                               !- Value Until Time 21
  08:00,                                  !- Time 22 {hh:mm}
  0.536778,                               !- Value Until Time 22
  08:09,                                  !- Time 23 {hh:mm}
  0.601842,                               !- Value Until Time 23
  08:19,                                  !- Time 24 {hh:mm}
  0.666906,                               !- Value Until Time 24
  08:29,                                  !- Time 25 {hh:mm}
  0.731969999999999,                      !- Value Until Time 25
  08:30,                                  !- Time 26 {hh:mm}
  0.73197,                                !- Value Until Time 26
  11:30,                                  !- Time 27 {hh:mm}
  0.73197,                                !- Value Until Time 27
  11:39,                                  !- Time 28 {hh:mm}
  0.718415,                               !- Value Until Time 28
  11:49,                                  !- Time 29 {hh:mm}
  0.70486,                                !- Value Until Time 29
  11:59,                                  !- Time 30 {hh:mm}
  0.691305,                               !- Value Until Time 30
  12:09,                                  !- Time 31 {hh:mm}
  0.67775,                                !- Value Until Time 31
  12:19,                                  !- Time 32 {hh:mm}
  0.664195,                               !- Value Until Time 32
  12:29,                                  !- Time 33 {hh:mm}
  0.65064,                                !- Value Until Time 33
  12:30,                                  !- Time 34 {hh:mm}
  0.65064,                                !- Value Until Time 34
  12:39,                                  !- Time 35 {hh:mm}
  0.664195,                               !- Value Until Time 35
  12:49,                                  !- Time 36 {hh:mm}
  0.67775,                                !- Value Until Time 36
  12:59,                                  !- Time 37 {hh:mm}
  0.691305,                               !- Value Until Time 37
  13:09,                                  !- Time 38 {hh:mm}
  0.70486,                                !- Value Until Time 38
  13:19,                                  !- Time 39 {hh:mm}
  0.718415,                               !- Value Until Time 39
  13:29,                                  !- Time 40 {hh:mm}
  0.73197,                                !- Value Until Time 40
  13:30,                                  !- Time 41 {hh:mm}
  0.73197,                                !- Value Until Time 41
  16:30,                                  !- Time 42 {hh:mm}
  0.73197,                                !- Value Until Time 42
  16:40,                                  !- Time 43 {hh:mm}
  0.6926605,                              !- Value Until Time 43
  16:50,                                  !- Time 44 {hh:mm}
  0.653350999999999,                      !- Value Until Time 44
  17:00,                                  !- Time 45 {hh:mm}
  0.614041499999999,                      !- Value Until Time 45
  17:10,                                  !- Time 46 {hh:mm}
  0.574731999999999,                      !- Value Until Time 46
  17:20,                                  !- Time 47 {hh:mm}
  0.535422499999999,                      !- Value Until Time 47
  17:30,                                  !- Time 48 {hh:mm}
  0.496113,                               !- Value Until Time 48
  17:40,                                  !- Time 49 {hh:mm}
  0.4703585,                              !- Value Until Time 49
  17:50,                                  !- Time 50 {hh:mm}
  0.444604,                               !- Value Until Time 50
  18:00,                                  !- Time 51 {hh:mm}
  0.418849499999999,                      !- Value Until Time 51
  18:10,                                  !- Time 52 {hh:mm}
  0.393094999999999,                      !- Value Until Time 52
  18:20,                                  !- Time 53 {hh:mm}
  0.367340499999999,                      !- Value Until Time 53
  18:30,                                  !- Time 54 {hh:mm}
  0.341586,                               !- Value Until Time 54
  19:00,                                  !- Time 55 {hh:mm}
  0.341586,                               !- Value Until Time 55
  19:10,                                  !- Time 56 {hh:mm}
  0.3348085,                              !- Value Until Time 56
  19:20,                                  !- Time 57 {hh:mm}
  0.328031,                               !- Value Until Time 57
  19:30,                                  !- Time 58 {hh:mm}
  0.3212535,                              !- Value Until Time 58
  19:40,                                  !- Time 59 {hh:mm}
  0.314476,                               !- Value Until Time 59
  19:50,                                  !- Time 60 {hh:mm}
  0.3076985,                              !- Value Until Time 60
  20:00,                                  !- Time 61 {hh:mm}
  0.300921,                               !- Value Until Time 61
  20:10,                                  !- Time 62 {hh:mm}
  0.2941435,                              !- Value Until Time 62
  20:20,                                  !- Time 63 {hh:mm}
  0.287366,                               !- Value Until Time 63
  20:30,                                  !- Time 64 {hh:mm}
  0.2805885,                              !- Value Until Time 64
  20:40,                                  !- Time 65 {hh:mm}
  0.273811,                               !- Value Until Time 65
  20:50,                                  !- Time 66 {hh:mm}
  0.267033499999999,                      !- Value Until Time 66
  21:00,                                  !- Time 67 {hh:mm}
  0.260256,                               !- Value Until Time 67
  21:30,                                  !- Time 68 {hh:mm}
  0.260256,                               !- Value Until Time 68
  21:40,                                  !- Time 69 {hh:mm}
  0.2480565,                              !- Value Until Time 69
  21:50,                                  !- Time 70 {hh:mm}
  0.235857,                               !- Value Until Time 70
  22:00,                                  !- Time 71 {hh:mm}
  0.2236575,                              !- Value Until Time 71
  22:10,                                  !- Time 72 {hh:mm}
  0.211458,                               !- Value Until Time 72
  22:20,                                  !- Time 73 {hh:mm}
  0.1992585,                              !- Value Until Time 73
  22:30,                                  !- Time 74 {hh:mm}
  0.187059,                               !- Value Until Time 74
  22:40,                                  !- Time 75 {hh:mm}
  0.1858825,                              !- Value Until Time 75
  22:50,                                  !- Time 76 {hh:mm}
  0.184706,                               !- Value Until Time 76
  23:00,                                  !- Time 77 {hh:mm}
  0.1835295,                              !- Value Until Time 77
  23:10,                                  !- Time 78 {hh:mm}
  0.182353,                               !- Value Until Time 78
  23:20,                                  !- Time 79 {hh:mm}
  0.1811765,                              !- Value Until Time 79
  23:30,                                  !- Time 80 {hh:mm}
  0.18,                                   !- Value Until Time 80
  24:00,                                  !- Time 81 {hh:mm}
  0.18;                                   !- Value Until Time 81

Schedule:Day:Interval,
  autogen OfficeSmall BLDG_LIGHT_SCH_2010 1_day_sch, !- Name
  Fractional,                             !- Schedule Type Limits Name
  Average,                                !- Interpolate to Timestep
  04:30,                                  !- Time 1 {hh:mm}
  0.18,                                   !- Value Until Time 1
  04:40,                                  !- Time 2 {hh:mm}
  0.188333333333333,                      !- Value Until Time 2
  04:50,                                  !- Time 3 {hh:mm}
  0.196666666666667,                      !- Value Until Time 3
  05:00,                                  !- Time 4 {hh:mm}
  0.205,                                  !- Value Until Time 4
  05:10,                                  !- Time 5 {hh:mm}
  0.213333333333333,                      !- Value Until Time 5
  05:20,                                  !- Time 6 {hh:mm}
  0.221666666666667,                      !- Value Until Time 6
  05:30,                                  !- Time 7 {hh:mm}
  0.23,                                   !- Value Until Time 7
  05:40,                                  !- Time 8 {hh:mm}
  0.222843166666667,                      !- Value Until Time 8
  05:50,                                  !- Time 9 {hh:mm}
  0.215686333333333,                      !- Value Until Time 9
  06:00,                                  !- Time 10 {hh:mm}
  0.2085295,                              !- Value Until Time 10
  06:10,                                  !- Time 11 {hh:mm}
  0.201372666666667,                      !- Value Until Time 11
  06:20,                                  !- Time 12 {hh:mm}
  0.194215833333333,                      !- Value Until Time 12
  06:30,                                  !- Time 13 {hh:mm}
  0.187059,                               !- Value Until Time 13
  06:40,                                  !- Time 14 {hh:mm}
  0.2128135,                              !- Value Until Time 14
  06:50,                                  !- Time 15 {hh:mm}
  0.238568,                               !- Value Until Time 15
  07:00,                                  !- Time 16 {hh:mm}
  0.2643225,                              !- Value Until Time 16
  07:10,                                  !- Time 17 {hh:mm}
  0.290077,                               !- Value Until Time 17
  07:20,                                  !- Time 18 {hh:mm}
  0.3158315,                              !- Value Until Time 18
  07:30,                                  !- Time 19 {hh:mm}
  0.341586,                               !- Value Until Time 19
  07:40,                                  !- Time 20 {hh:mm}
  0.40665,                                !- Value Until Time 20
  07:50,                                  !- Time 21 {hh:mm}
  0.471714,                               !- Value Until Time 21
  08:00,                                  !- Time 22 {hh:mm}
  0.536778,                               !- Value Until Time 22
  08:09,                                  !- Time 23 {hh:mm}
  0.601842,                               !- Value Until Time 23
  08:19,                                  !- Time 24 {hh:mm}
  0.666906,                               !- Value Until Time 24
  08:29,                                  !- Time 25 {hh:mm}
  0.731969999999999,                      !- Value Until Time 25
  08:30,                                  !- Time 26 {hh:mm}
  0.73197,                                !- Value Until Time 26
  11:30,                                  !- Time 27 {hh:mm}
  0.73197,                                !- Value Until Time 27
  11:39,                                  !- Time 28 {hh:mm}
  0.718415,                               !- Value Until Time 28
  11:49,                                  !- Time 29 {hh:mm}
  0.70486,                                !- Value Until Time 29
  11:59,                                  !- Time 30 {hh:mm}
  0.691305,                               !- Value Until Time 30