
OS:Version,
  {281d53f5-020e-4cb8-a277-f60d3eede37c}, !- Handle
  3.6.0;                                  !- Version Identifier

OS:Schedule:Constant,
  {2200450b-527b-4e5b-9911-63d7b634112a}, !- Handle
  Always On Discrete,                     !- Name
  {802d38de-a6ef-4180-b01f-0c0acf082f27}, !- Schedule Type Limits Name
  1;                                      !- Value

OS:ScheduleTypeLimits,
  {802d38de-a6ef-4180-b01f-0c0acf082f27}, !- Handle
  Always On Discrete Limits,              !- Name
  0,                                      !- Lower Limit Value
  1,                                      !- Upper Limit Value
  Discrete,                               !- Numeric Type
  Availability;                           !- Unit Type

OS:Site,
  {e4e0cf83-aa67-462b-ac86-dd69d24de0d1}, !- Handle
  Kodiak Airport,                         !- Name
  57.75,                                  !- Latitude {deg}
  -152.5,                                 !- Longitude {deg}
  -9,                                     !- Time Zone {hr}
  5,                                      !- Elevation {m}
  City;                                   !- Terrain

OS:SimulationControl,
  {fe5b5f3c-f637-4fd1-a2b3-f4d09456dccb}, !- Handle
  Yes,                                    !- Do Zone Sizing Calculation
  Yes,                                    !- Do System Sizing Calculation
  Yes,                                    !- Do Plant Sizing Calculation
  No,                                     !- Run Simulation for Sizing Periods
  Yes,                                    !- Run Simulation for Weather File Run Periods
  0.04,                                   !- Loads Convergence Tolerance Value {W}
  0.2,                                    !- Temperature Convergence Tolerance Value {deltaC}
  FullInteriorAndExterior,                !- Solar Distribution
  25,                                     !- Maximum Number of Warmup Days
  6,                                      !- Minimum Number of Warmup Days
  No,                                     !- Do HVAC Sizing Simulation for Sizing Periods
  1;                                      !- Maximum Number of HVAC Sizing Simulation Passes

OS:Connection,
  {d367abd9-ef96-4df2-a4a5-60b4b9f5779f}, !- Handle
  ,                                       !- Source Object
  11,                                     !- Outlet Port
  ,                                       !- Target Object
  2;                                      !- Inlet Port

OS:Connection,
  {b76c9257-2ba1-41ca-b928-7e4cece1fb38}, !- Handle
  ,                                       !- Source Object
  11,                                     !- Outlet Port
  ,                                       !- Target Object
  2;                                      !- Inlet Port

OS:Connection,
  {3e98f27d-1e5c-47bf-b1dd-320cc71dc280}, !- Handle
  ,                                       !- Source Object
  11,                                     !- Outlet Port
  ,                                       !- Target Object
  2;                                      !- Inlet Port

OS:Connection,
  {4d957a31-f699-4eae-93e7-35cb0402bdc3}, !- Handle
  ,                                       !- Source Object
  11,                                     !- Outlet Port
  ,                                       !- Target Object
  2;                                      !- Inlet Port

OS:Connection,
  {99cfc414-45c1-4be7-8757-3ae36bc2af42}, !- Handle
  ,                                       !- Source Object
  11,                                     !- Outlet Port
  ,                                       !- Target Object
  2;                                      !- Inlet Port

OS:Output:Meter,
  {abc5d571-df7f-47b1-bf8b-892a6dadede3}, !- Handle
  NaturalGas:Facility,                    !- Name
  Hourly,                                 !- Reporting Frequency
  True,                                   !- Meter File Only
  False;                                  !- Cumulative

OS:Connection,
  {3cc89c32-b209-45a8-aee8-40997f52820c}, !- Handle
  ,                                       !- Source Object
  11,                                     !- Outlet Port
  ,                                       !- Target Object
  2;                                      !- Inlet Port

OS:ConvergenceLimits,
  {257bad81-3887-44d2-9561-57968d0ebe2d}, !- Handle
  1,                                      !- Minimum System Timestep {minutes}
  20;                                     !- Maximum HVAC Iterations

OS:HeatBalanceAlgorithm,
  {30aa4e32-ecc1-41fa-8e20-75c7b3a9c558}, !- Handle
  ConductionTransferFunction,             !- Algorithm
  200;                                    !- Surface Temperature Upper Limit {C}

OS:Timestep,
  {eb583d9a-28e0-49c6-8519-cae0088b5073}, !- Handle
  1;                                      !- Number of Timesteps per Hour

OS:Sizing:Parameters,
  {11b5cbd0-c450-4b2c-aa14-62edeaca5d67}, !- Handle
  1.25,                                   !- Heating Sizing Factor
  1.15,                                   !- Cooling Sizing Factor
  1;                                      !- Timesteps in Averaging Window

OS:Output:Meter,
  {15699204-c979-4451-b40c-3b532d8c0da9}, !- Handle
  ElectricityNet:Facility,                !- Name
  Hourly,                                 !- Reporting Frequency
  True,                                   !- Meter File Only
  False;                                  !- Cumulative

OS:Output:Meter,
  {d446ed18-52cc-487c-bf58-c78a8edaa642}, !- Handle
  Electricity:Facility,                   !- Name
  Hourly,                                 !- Reporting Frequency
  True,                                   !- Meter File Only
  False;                                  !- Cumulative

OS:RunPeriod,
  {94267dee-950c-4c53-aa76-7a4b668d0573}, !- Handle
  Run Period 1,                           !- Name
  1,                                      !- Begin Month
  1,                                      !- Begin Day of Month
  12,                                     !- End Month
  31,                                     !- End Day of Month
  No,                                     !- Use Weather File Holidays and Special Days
  No,                                     !- Use Weather File Daylight Saving Period
  No,                                     !- Apply Weekend Holiday Rule
  Yes,                                    !- Use Weather File Rain Indicators
  Yes,                                    !- Use Weather File Snow Indicators
  1;                                      !- Number of Times Runperiod to be Repeated

OS:YearDescription,
  {c909b14d-25f4-4587-81ac-13c1e4bb0508}, !- Handle
  ,                                       !- Calendar Year
  Sunday,                                 !- Day of Week for Start Day
  ;                                       !- Is Leap Year

OS:ShadowCalculation,
  {208066fd-3337-431a-92af-1b641ddb4c8e}, !- Handle
  PolygonClipping,                        !- Shading Calculation Method
  ,                                       !- Shading Calculation Update Frequency Method
  30,                                     !- Shading Calculation Update Frequency
  15000,                                  !- Maximum Figures in Shadow Overlap Calculations
  ,                                       !- Polygon Clipping Algorithm
  512,                                    !- Pixel Counting Resolution
  ,                                       !- Sky Diffuse Modeling Algorithm
  No,                                     !- Output External Shading Calculation Results
  No,                                     !- Disable Self-Shading Within Shading Zone Groups
  No;                                     !- Disable Self-Shading From Shading Zone Groups to Other Zones

OS:Facility,
  {8b48fb85-9058-4291-a948-6088f0592bb3}; !- Handle

OS:ScheduleTypeLimits,
  {afe44be9-7e6f-49dc-a06f-b601c45b8b3b}, !- Handle
  Fractional,                             !- Name
  0,                                      !- Lower Limit Value
  1,                                      !- Upper Limit Value
  Continuous;                             !- Numeric Type

OS:Schedule:Ruleset,
  {6d4b02a4-9b00-41ad-9b2b-98232275e1ac}, !- Handle
  Clothing Schedule,                      !- Name
  {4b5cb6f5-3ae7-4996-8233-4c9c730ed80e}, !- Schedule Type Limits Name
  {9c78e19b-5ec3-46c6-8936-93a0a2ac5811}; !- Default Day Schedule Name

OS:Schedule:Day,
  {9c78e19b-5ec3-46c6-8936-93a0a2ac5811}, !- Handle
  Clothing Schedule Default Winter Clothes, !- Name
  {4b5cb6f5-3ae7-4996-8233-4c9c730ed80e}, !- Schedule Type Limits Name
  ,                                       !- Interpolate to Timestep
  24,                                     !- Hour 1
  0,                                      !- Minute 1
  1;                                      !- Value Until Time 1

OS:Schedule:Rule,
  {e4095fe8-b4b1-4136-98b2-923514c27eba}, !- Handle
  Schedule Rule 3,                        !- Name
  {6d4b02a4-9b00-41ad-9b2b-98232275e1ac}, !- Schedule Ruleset Name
  0,                                      !- Rule Order
  {54018041-00c1-4810-ba77-330b9cc691b5}, !- Day Schedule Name
  ,                                       !- Apply Sunday
  ,                                       !- Apply Monday
  ,                                       !- Apply Tuesday
  ,                                       !- Apply Wednesday
  ,                                       !- Apply Thursday
  ,                                       !- Apply Friday
  ,                                       !- Apply Saturday
  DateRange,                              !- Date Specification Type
  5,                                      !- Start Month
  1,                                      !- Start Day
  9,                                      !- End Month
  30;                                     !- End Day

OS:Schedule:Day,
  {54018041-00c1-4810-ba77-330b9cc691b5}, !- Handle
  Clothing Schedule Summer Clothes,       !- Name
  {4b5cb6f5-3ae7-4996-8233-4c9c730ed80e}, !- Schedule Type Limits Name
  ,                                       !- Interpolate to Timestep
  24,                                     !- Hour 1
  0,                                      !- Minute 1
  0.5;                                    !- Value Until Time 1

OS:ScheduleTypeLimits,
  {4b5cb6f5-3ae7-4996-8233-4c9c730ed80e}, !- Handle
  ClothingInsulation,                     !- Name
  0,                                      !- Lower Limit Value
  ,                                       !- Upper Limit Value
  Continuous,                             !- Numeric Type
  ClothingInsulation;                     !- Unit Type

OS:Schedule:Ruleset,
  {62657ac8-4edb-494b-8f60-c4ae80ae93ed}, !- Handle
  Air Velocity Schedule,                  !- Name
  {b8dd26ac-7979-4544-b6d6-bad9df0e939d}, !- Schedule Type Limits Name
  {b88e5d43-b7b5-4de3-adf2-1d09134f056e}; !- Default Day Schedule Name

OS:Schedule:Day,
  {b88e5d43-b7b5-4de3-adf2-1d09134f056e}, !- Handle
  Air Velocity Schedule Default,          !- Name
  {b8dd26ac-7979-4544-b6d6-bad9df0e939d}, !- Schedule Type Limits Name
  ,                                       !- Interpolate to Timestep
  24,                                     !- Hour 1
  0,                                      !- Minute 1
  0.2;                                    !- Value Until Time 1

OS:ScheduleTypeLimits,
  {b8dd26ac-7979-4544-b6d6-bad9df0e939d}, !- Handle
  Velocity,                               !- Name
  0,                                      !- Lower Limit Value
  ,                                       !- Upper Limit Value
  Continuous,                             !- Numeric Type
  Velocity;                               !- Unit Type

OS:Schedule:Ruleset,
  {b10bea0c-327f-4471-a2a8-eabd117121f6}, !- Handle
  Work Efficiency Schedule,               !- Name
  {afe44be9-7e6f-49dc-a06f-b601c45b8b3b}, !- Schedule Type Limits Name
  {15d74a8b-e0e7-42c0-bacb-61326ff769ac}; !- Default Day Schedule Name

OS:Schedule:Day,
  {15d74a8b-e0e7-42c0-bacb-61326ff769ac}, !- Handle
  Work Efficiency Schedule Default,       !- Name
  {afe44be9-7e6f-49dc-a06f-b601c45b8b3b}, !- Schedule Type Limits Name
  ,                                       !- Interpolate to Timestep
  24,                                     !- Hour 1
  0,                                      !- Minute 1
  0;                                      !- Value Until Time 1

OS:Lights:Definition,
  {be48d715-a549-4d31-ad65-5e71897ae424}, !- Handle
  Office WholeBuilding - Sm Office Lights Definition, !- Name
  Watts/Area,                             !- Design Level Calculation Method
  ,                                       !- Lighting Level {W}
  8.82640654170197,                       !- Watts per Space Floor Area {W/m2}
  ,                                       !- Watts per Person {W/person}
  0.7,                                    !- Fraction Radiant
  0.2,                                    !- Fraction Visible
  0;                                      !- Return Air Fraction

OS:AdditionalProperties,
  {1ef98389-838d-4578-a84d-c2f86dc9bcba}, !- Handle
  {be48d715-a549-4d31-ad65-5e71897ae424}, !- Object Name
  lpd_fraction_linear_fluorescent,        !- Feature Name 1
  Double,                                 !- Feature Data Type 1
  1;                                      !- Feature Value 1

OS:ClimateZones,
  {b6ed20fb-d597-4253-8852-4cccb51b4ce7}, !- Handle
  ASHRAE,                                 !- Climate Zone Institution Name 1
  ANSI/ASHRAE Standard 169,               !- Climate Zone Document Name 1
  2006,                                   !- Climate Zone Document Year 1
  8A,                                     !- Climate Zone Value 1
  CEC,                                    !- Climate Zone Institution Name 2
  California Climate Zone Descriptions,   !- Climate Zone Document Name 2
  1995,                                   !- Climate Zone Document Year 2
  ;                                       !- Climate Zone Value 2

OS:Schedule:Ruleset,
  {115d48c4-9577-4fac-a6c1-fd616aea0592}, !- Handle
  OfficeSmall BLDG_OCC_SCH,               !- Name
  {afe44be9-7e6f-49dc-a06f-b601c45b8b3b}, !- Schedule Type Limits Name
  {ec112d03-f3f2-43eb-9be0-9c81707308e7}, !- Default Day Schedule Name
  {6856163c-3e28-4b6d-96df-2a53ca621bb2}, !- Summer Design Day Schedule Name
  {6350e150-0b0a-41a5-aefc-db15d331d4fb}; !- Winter Design Day Schedule Name

OS:Schedule:Day,
  {ec112d03-f3f2-43eb-9be0-9c81707308e7}, !- Handle
  OfficeSmall BLDG_OCC_SCH Default,       !- Name
  {afe44be9-7e6f-49dc-a06f-b601c45b8b3b}, !- Schedule Type Limits Name
  Yes,                                    !- Interpolate to Timestep
  5,                                      !- Hour 1
  30,                                     !- Minute 1
  0.570791362568684,                      !- Value Until Time 1
  5,                                      !- Hour 2
  40,                                     !- Minute 2
  0.570602616466032,                      !- Value Until Time 2
  5,                                      !- Hour 3
  50,                                     !- Minute 3
  0.570413870363379,                      !- Value Until Time 3
  6,                                      !- Hour 4
  0,                                      !- Minute 4
  0.570225124260727,                      !- Value Until Time 4
  6,                                      !- Hour 5
  10,                                     !- Minute 5
  0.570036378158075,                      !- Value Until Time 5
  6,                                      !- Hour 6
  20,                                     !- Minute 6
  0.569847632055422,                      !- Value Until Time 6
  6,                                      !- Hour 7
  30,                                     !- Minute 7
  0.56965888595277,                       !- Value Until Time 7
  6,                                      !- Hour 8
  40,                                     !- Minute 8
  0.569281393747465,                      !- Value Until Time 8
  6,                                      !- Hour 9
  50,                                     !- Minute 9
  0.568903901542161,                      !- Value Until Time 9
  7,                                      !- Hour 10
  0,                                      !- Minute 10
  0.568526409336856,                      !- Value Until Time 10
  7,                                      !- Hour 11
  10,                                     !- Minute 11
  0.568148917131552,                      !- Value Until Time 11
  7,                                      !- Hour 12
  20,                                     !- Minute 12
  0.567771424926247,                      !- Value Until Time 12
  7,                                      !- Hour 13
  30,                                     !- Minute 13
  0.567393932720943,                      !- Value Until Time 13
  7,                                      !- Hour 14
  40,                                     !- Minute 14
  0.567582678823595,                      !- Value Until Time 14
  7,                                      !- Hour 15
  50,                                     !- Minute 15
  0.567771424926248,                      !- Value Until Time 15
  8,                                      !- Hour 16
  0,                                      !- Minute 16
  0.5679601710289,                        !- Value Until Time 16
  8,                                      !- Hour 17
  9,                                      !- Minute 17
  0.568148917131552,                      !- Value Until Time 17
  8,                                      !- Hour 18
  19,                                     !- Minute 18
  0.568337663234205,                      !- Value Until Time 18
  8,                                      !- Hour 19
  29,                                     !- Minute 19
  0.568526409336857,                      !- Value Until Time 19
  8,                                      !- Hour 20
  30,                                     !- Minute 20
  0.568526409336857,                      !- Value Until Time 20
  11,                                     !- Hour 21
  30,                                     !- Minute 21
  0.568526409336857,                      !- Value Until Time 21
  11,                                     !- Hour 22
  39,                                     !- Minute 22
  0.568715155439509,                      !- Value Until Time 22
  11,                                     !- Hour 23
  49,                                     !- Minute 23
  0.568903901542161,                      !- Value Until Time 23
  11,                                     !- Hour 24
  59,                                     !- Minute 24
  0.569092647644813,                      !- Value Until Time 24
  12,                                     !- Hour 25
  9,                                      !- Minute 25
  0.569281393747466,                      !- Value Until Time 25
  12,                                     !- Hour 26
  19,                                     !- Minute 26
  0.569470139850118,                      !- Value Until Time 26
  12,                                     !- Hour 27
  29,                                     !- Minute 27
  0.56965888595277,                       !- Value Until Time 27
  12,                                     !- Hour 28
  30,                                     !- Minute 28
  0.56965888595277,                       !- Value Until Time 28
  13,                                     !- Hour 29
  30,                                     !- Minute 29
  0.56965888595277,                       !- Value Until Time 29
  16,                                     !- Hour 30
  30,                                     !- Minute 30
  0.56965888595277,                       !- Value Until Time 30
  16,                                     !- Hour 31
  40,                                     !- Minute 31
  0.569847632055422,                      !- Value Until Time 31
  16,                                     !- Hour 32
  50,                                     !- Minute 32
  0.570036378158075,                      !- Value Until Time 32
  17,                                     !- Hour 33
  0,                                      !- Minute 33
  0.570225124260727,                      !- Value Until Time 33
  17,                                     !- Hour 34
  10,                                     !- Minute 34
  0.570413870363379,                      !- Value Until Time 34
  17,                                     !- Hour 35
  20,                                     !- Minute 35
  0.570602616466032,                      !- Value Until Time 35
  17,                                     !- Hour 36
  30,                                     !- Minute 36
  0.570791362568684,                      !- Value Until Time 36
  18,                                     !- Hour 37
  30,                                     !- Minute 37
  0.570791362568684,                      !- Value Until Time 37
  21,                                     !- Hour 38
  30,                                     !- Minute 38
  0.570791362568684,                      !- Value Until Time 38
  22,                                     !- Hour 39
  30,                                     !- Minute 39
  0.570791362568684,                      !- Value Until Time 39
  23,                                     !- Hour 40
  30,                                     !- Minute 40
  0.570791362568684,                      !- Value Until Time 40
  24,                                     !- Hour 41
  0,                                      !- Minute 41
  0.570791362568684;                      !- Value Until Time 41

OS:Schedule:Day,
  {6350e150-0b0a-41a5-aefc-db15d331d4fb}, !- Handle
  OfficeSmall BLDG_OCC_SCH Winter Design Day, !- Name
  {afe44be9-7e6f-49dc-a06f-b601c45b8b3b}, !- Schedule Type Limits Name
  ,                                       !- Interpolate to Timestep
  24,                                     !- Hour 1
  0,                                      !- Minute 1
  0;                                      !- Value Until Time 1

OS:Schedule:Day,
  {6856163c-3e28-4b6d-96df-2a53ca621bb2}, !- Handle
  OfficeSmall BLDG_OCC_SCH Summer Design Day, !- Name
  {afe44be9-7e6f-49dc-a06f-b601c45b8b3b}, !- Schedule Type Limits Name
  ,                                       !- Interpolate to Timestep
  24,                                     !- Hour 1
  0,                                      !- Minute 1
  1;                                      !- Value Until Time 1

OS:Schedule:Ruleset,
  {7a603b87-81ba-42cc-a695-cc100258599e}, !- Handle
  OfficeSmall ACTIVITY_SCH,               !- Name
  {0dff6463-e2c7-4c75-b57a-08b8f2b1d7d6}, !- Schedule Type Limits Name
  {f5772ef3-4f19-40c7-8c94-f855997570fa}, !- Default Day Schedule Name
  {ab889806-e5ed-41f8-a51f-0eda54deb0ab}, !- Summer Design Day Schedule Name
  {4d254daa-d036-479a-9cbc-e09e477eef0b}; !- Winter Design Day Schedule Name

OS:Schedule:Day,
  {f5772ef3-4f19-40c7-8c94-f855997570fa}, !- Handle
  OfficeSmall ACTIVITY_SCH Default,       !- Name
  {0dff6463-e2c7-4c75-b57a-08b8f2b1d7d6}, !- Schedule Type Limits Name
  Yes,                                    !- Interpolate to Timestep
  24,                                     !- Hour 1
  0,                                      !- Minute 1
  120;                                    !- Value Until Time 1

OS:Schedule:Day,
  {4d254daa-d036-479a-9cbc-e09e477eef0b}, !- Handle
  OfficeSmall ACTIVITY_SCH Winter Design Day, !- Name
  {0dff6463-e2c7-4c75-b57a-08b8f2b1d7d6}, !- Schedule Type Limits Name
  ,                                       !- Interpolate to Timestep
  24,                                     !- Hour 1
  0,                                      !- Minute 1
  120;                                    !- Value Until Time 1

OS:Schedule:Day,
  {ab889806-e5ed-41f8-a51f-0eda54deb0ab}, !- Handle
  OfficeSmall ACTIVITY_SCH Summer Design Day, !- Name
  {0dff6463-e2c7-4c75-b57a-08b8f2b1d7d6}, !- Schedule Type Limits Name
  ,                                       !- Interpolate to Timestep
  24,                                     !- Hour 1
  0,                                      !- Minute 1
  120;                                    !- Value Until Time 1

OS:ScheduleTypeLimits,
  {0dff6463-e2c7-4c75-b57a-08b8f2b1d7d6}, !- Handle
  ActivityLevel,                          !- Name
  0,                                      !- Lower Limit Value
  ,                                       !- Upper Limit Value
  Continuous,                             !- Numeric Type
  ActivityLevel;                          !- Unit Type

OS:Schedule:Ruleset,
  {64c711d5-a9b8-42b5-b9d7-038161e690ef}, !- Handle
  OfficeSmall INFIL_QUARTER_ON_SCH,       !- Name
  {afe44be9-7e6f-49dc-a06f-b601c45b8b3b}, !- Schedule Type Limits Name
  {62995fe7-8640-4f80-a6d3-fd5140051a74}, !- Default Day Schedule Name
  {5280e70a-1bcb-4193-ab82-cc54d268010f}, !- Summer Design Day Schedule Name
  {9dd1827c-2f86-4d8a-ab2c-0a8e55c7db7c}; !- Winter Design Day Schedule Name

OS:Schedule:Day,
  {62995fe7-8640-4f80-a6d3-fd5140051a74}, !- Handle
  OfficeSmall INFIL_QUARTER_ON_SCH Default, !- Name
  {afe44be9-7e6f-49dc-a06f-b601c45b8b3b}, !- Schedule Type Limits Name
  ,                                       !- Interpolate to Timestep
  24,                                     !- Hour 1
  0,                                      !- Minute 1
  1;                                      !- Value Until Time 1

OS:Schedule:Day,
  {5280e70a-1bcb-4193-ab82-cc54d268010f}, !- Handle
  OfficeSmall INFIL_QUARTER_ON_SCH Summer Design Day, !- Name
  {afe44be9-7e6f-49dc-a06f-b601c45b8b3b}, !- Schedule Type Limits Name
  ,                                       !- Interpolate to Timestep
  7,                                      !- Hour 1
  0,                                      !- Minute 1
  1,                                      !- Value Until Time 1
  19,                                     !- Hour 2
  0,                                      !- Minute 2
  0.25,                                   !- Value Until Time 2
  24,                                     !- Hour 3
  0,                                      !- Minute 3
  1;                                      !- Value Until Time 3

OS:Schedule:Rule,
  {e4f0715a-25e4-43c5-9a36-837173e48206}, !- Handle
  Schedule Rule 9,                        !- Name
  {64c711d5-a9b8-42b5-b9d7-038161e690ef}, !- Schedule Ruleset Name
  6,                                      !- Rule Order
  {ba398264-824d-410f-90c1-60928428085d}, !- Day Schedule Name
  ,                                       !- Apply Sunday
  Yes,                                    !- Apply Monday
  Yes,                                    !- Apply Tuesday
  Yes,                                    !- Apply Wednesday
  Yes,                                    !- Apply Thursday
  Yes,                                    !- Apply Friday
  ,                                       !- Apply Saturday
  DateRange,                              !- Date Specification Type
  1,                                      !- Start Month
  1,                                      !- Start Day
  12,                                     !- End Month
  31;                                     !- End Day

OS:Schedule:Day,
  {ba398264-824d-410f-90c1-60928428085d}, !- Handle
  OfficeSmall INFIL_QUARTER_ON_SCH SmrDsn|Wkdy Day, !- Name
  {afe44be9-7e6f-49dc-a06f-b601c45b8b3b}, !- Schedule Type Limits Name
  ,                                       !- Interpolate to Timestep
  7,                                      !- Hour 1
  0,                                      !- Minute 1
  1,                                      !- Value Until Time 1
  19,                                     !- Hour 2
  0,                                      !- Minute 2
  0.25,                                   !- Value Until Time 2
  24,                                     !- Hour 3
  0,                                      !- Minute 3
  1;                                      !- Value Until Time 3

OS:Schedule:Day,
  {9dd1827c-2f86-4d8a-ab2c-0a8e55c7db7c}, !- Handle
  OfficeSmall INFIL_QUARTER_ON_SCH Winter Design Day, !- Name
  {afe44be9-7e6f-49dc-a06f-b601c45b8b3b}, !- Schedule Type Limits Name
  ,                                       !- Interpolate to Timestep
  7,                                      !- Hour 1
  0,                                      !- Minute 1
  1,                                      !- Value Until Time 1
  18,                                     !- Hour 2
  0,                                      !- Minute 2
  0.25,                                   !- Value Until Time 2
  24,                                     !- Hour 3
  0,                                      !- Minute 3
  1;                                      !- Value Until Time 3

OS:Schedule:Rule,
  {2c2b8be8-215d-4ffe-a26c-e9d462bed9ea}, !- Handle
  Schedule Rule 10,                       !- Name
  {64c711d5-a9b8-42b5-b9d7-038161e690ef}, !- Schedule Ruleset Name
  5,                                      !- Rule Order
  {fee27384-7d46-45c9-a9e7-2828fdfbcdd9}, !- Day Schedule Name
  ,                                       !- Apply Sunday
  ,                                       !- Apply Monday
  ,                                       !- Apply Tuesday
  ,                                       !- Apply Wednesday
  ,                                       !- Apply Thursday
  ,                                       !- Apply Friday
  Yes,                                    !- Apply Saturday
  DateRange,                              !- Date Specification Type
  1,                                      !- Start Month
  1,                                      !- Start Day
  12,                                     !- End Month
  31;                                     !- End Day

OS:Schedule:Day,
  {fee27384-7d46-45c9-a9e7-2828fdfbcdd9}, !- Handle