
Version,
  23.1;                                   !- Version Identifier

Timestep,
  1;                                      !- Number of Timesteps per Hour

LifeCycleCost:Parameters,
  Life Cycle Cost Parameters,             !- Name
  EndOfYear,                              !- Discounting Convention
  ConstantDollar,                         !- Inflation Approach
  0.03,                                   !- Real Discount Rate
  ,                                       !- Nominal Discount Rate
  ,                                       !- Inflation
  ,                                       !- Base Date Month
  2011,                                   !- Base Date Year
  ,                                       !- Service Date Month
  2011,                                   !- Service Date Year
  25,                                     !- Length of Study Period in Years
  ,                                       !- Tax rate
  None;                                   !- Depreciation Method

LifeCycleCost:UsePriceEscalation,
  U.S. Avg  Commercial-Electricity,       !- Name
  Electricity,                            !- Resource
  2011,                                   !- Escalation Start Year
  January,                                !- Escalation Start Month
  0.9838,                                 !- Year Escalation 1
  0.9730,                                 !- Year Escalation 2
  0.9632,                                 !- Year Escalation 3
  0.9611,                                 !- Year Escalation 4
  0.9571,                                 !- Year Escalation 5
  0.9553,                                 !- Year Escalation 6
  0.9539,                                 !- Year Escalation 7
  0.9521,                                 !- Year Escalation 8
  0.9546,                                 !- Year Escalation 9
  0.9550,                                 !- Year Escalation 10
  0.9553,                                 !- Year Escalation 11
  0.9564,                                 !- Year Escalation 12
  0.9575,                                 !- Year Escalation 13
  0.9596,                                 !- Year Escalation 14
  0.9618,                                 !- Year Escalation 15
  0.9614,                                 !- Year Escalation 16
  0.9618,                                 !- Year Escalation 17
  0.9618,                                 !- Year Escalation 18
  0.9593,                                 !- Year Escalation 19
  0.9589,                                 !- Year Escalation 20
  0.9607,                                 !- Year Escalation 21
  0.9625,                                 !- Year Escalation 22
  0.9650,                                 !- Year Escalation 23
  0.9708,                                 !- Year Escalation 24
  0.9751,                                 !- Year Escalation 25
  0.9762,                                 !- Year Escalation 26
  0.9766,                                 !- Year Escalation 27
  0.9766,                                 !- Year Escalation 28
  0.9769,                                 !- Year Escalation 29
  0.9773;                                 !- Year Escalation 30

LifeCycleCost:UsePriceEscalation,
  U.S. Avg  Commercial-Distillate Oil,    !- Name
  FuelOilNo1,                             !- Resource
  2011,                                   !- Escalation Start Year
  January,                                !- Escalation Start Month
  0.9714,                                 !- Year Escalation 1
  0.9730,                                 !- Year Escalation 2
  0.9942,                                 !- Year Escalation 3
  1.0164,                                 !- Year Escalation 4
  1.0541,                                 !- Year Escalation 5
  1.0928,                                 !- Year Escalation 6
  1.1267,                                 !- Year Escalation 7
  1.1580,                                 !- Year Escalation 8
  1.1792,                                 !- Year Escalation 9
  1.1967,                                 !- Year Escalation 10
  1.2200,                                 !- Year Escalation 11
  1.2333,                                 !- Year Escalation 12
  1.2566,                                 !- Year Escalation 13
  1.2709,                                 !- Year Escalation 14
  1.2826,                                 !- Year Escalation 15
  1.2985,                                 !- Year Escalation 16
  1.3102,                                 !- Year Escalation 17
  1.3250,                                 !- Year Escalation 18
  1.3261,                                 !- Year Escalation 19
  1.3282,                                 !- Year Escalation 20
  1.3324,                                 !- Year Escalation 21
  1.3356,                                 !- Year Escalation 22
  1.3431,                                 !- Year Escalation 23
  1.3510,                                 !- Year Escalation 24
  1.3568,                                 !- Year Escalation 25
  1.3606,                                 !- Year Escalation 26
  1.3637,                                 !- Year Escalation 27
  1.3674,                                 !- Year Escalation 28
  1.3706,                                 !- Year Escalation 29
  1.3743;                                 !- Year Escalation 30

LifeCycleCost:UsePriceEscalation,
  U.S. Avg  Commercial-Residual Oil,      !- Name
  FuelOilNo2,                             !- Resource
  2011,                                   !- Escalation Start Year
  January,                                !- Escalation Start Month
  0.8469,                                 !- Year Escalation 1
  0.8257,                                 !- Year Escalation 2
  0.8681,                                 !- Year Escalation 3
  0.8988,                                 !- Year Escalation 4
  0.9289,                                 !- Year Escalation 5
  0.9604,                                 !- Year Escalation 6
  0.9897,                                 !- Year Escalation 7
  1.0075,                                 !- Year Escalation 8
  1.0314,                                 !- Year Escalation 9
  1.0554,                                 !- Year Escalation 10
  1.0861,                                 !- Year Escalation 11
  1.1278,                                 !- Year Escalation 12
  1.1497,                                 !- Year Escalation 13
  1.1620,                                 !- Year Escalation 14
  1.1743,                                 !- Year Escalation 15
  1.1852,                                 !- Year Escalation 16
  1.1948,                                 !- Year Escalation 17
  1.2037,                                 !- Year Escalation 18
  1.2071,                                 !- Year Escalation 19
  1.2119,                                 !- Year Escalation 20
  1.2139,                                 !- Year Escalation 21
  1.2194,                                 !- Year Escalation 22
  1.2276,                                 !- Year Escalation 23
  1.2365,                                 !- Year Escalation 24
  1.2420,                                 !- Year Escalation 25
  1.2461,                                 !- Year Escalation 26
  1.2509,                                 !- Year Escalation 27
  1.2550,                                 !- Year Escalation 28
  1.2591,                                 !- Year Escalation 29
  1.2638;                                 !- Year Escalation 30

LifeCycleCost:UsePriceEscalation,
  U.S. Avg  Commercial-Natural gas,       !- Name
  NaturalGas,                             !- Resource
  2011,                                   !- Escalation Start Year
  January,                                !- Escalation Start Month
  0.9823,                                 !- Year Escalation 1
  0.9557,                                 !- Year Escalation 2
  0.9279,                                 !- Year Escalation 3
  0.9257,                                 !- Year Escalation 4
  0.9346,                                 !- Year Escalation 5
  0.9412,                                 !- Year Escalation 6
  0.9512,                                 !- Year Escalation 7
  0.9645,                                 !- Year Escalation 8
  0.9856,                                 !- Year Escalation 9
  1.0067,                                 !- Year Escalation 10
  1.0222,                                 !- Year Escalation 11
  1.0410,                                 !- Year Escalation 12
  1.0610,                                 !- Year Escalation 13
  1.0787,                                 !- Year Escalation 14
  1.0942,                                 !- Year Escalation 15
  1.1098,                                 !- Year Escalation 16
  1.1220,                                 !- Year Escalation 17
  1.1308,                                 !- Year Escalation 18
  1.1386,                                 !- Year Escalation 19
  1.1486,                                 !- Year Escalation 20
  1.1619,                                 !- Year Escalation 21
  1.1763,                                 !- Year Escalation 22
  1.1918,                                 !- Year Escalation 23
  1.2118,                                 !- Year Escalation 24
  1.2284,                                 !- Year Escalation 25
  1.2439,                                 !- Year Escalation 26
  1.2605,                                 !- Year Escalation 27
  1.2772,                                 !- Year Escalation 28
  1.2938,                                 !- Year Escalation 29
  1.3115;                                 !- Year Escalation 30

LifeCycleCost:UsePriceEscalation,
  U.S. Avg  Commercial-Coal,              !- Name
  Coal,                                   !- Resource
  2011,                                   !- Escalation Start Year
  January,                                !- Escalation Start Month
  0.9970,                                 !- Year Escalation 1
  1.0089,                                 !- Year Escalation 2
  1.0089,                                 !- Year Escalation 3
  0.9941,                                 !- Year Escalation 4
  0.9941,                                 !- Year Escalation 5
  1.0000,                                 !- Year Escalation 6
  1.0030,                                 !- Year Escalation 7
  1.0059,                                 !- Year Escalation 8
  1.0089,                                 !- Year Escalation 9
  1.0119,                                 !- Year Escalation 10
  1.0148,                                 !- Year Escalation 11
  1.0178,                                 !- Year Escalation 12
  1.0208,                                 !- Year Escalation 13
  1.0267,                                 !- Year Escalation 14
  1.0297,                                 !- Year Escalation 15
  1.0356,                                 !- Year Escalation 16
  1.0415,                                 !- Year Escalation 17
  1.0534,                                 !- Year Escalation 18
  1.0564,                                 !- Year Escalation 19
  1.0593,                                 !- Year Escalation 20
  1.0653,                                 !- Year Escalation 21
  1.0712,                                 !- Year Escalation 22
  1.0742,                                 !- Year Escalation 23
  1.0801,                                 !- Year Escalation 24
  1.0831,                                 !- Year Escalation 25
  1.0831,                                 !- Year Escalation 26
  1.0861,                                 !- Year Escalation 27
  1.0890,                                 !- Year Escalation 28
  1.0920,                                 !- Year Escalation 29
  1.0950;                                 !- Year Escalation 30

Building,
  DOE Ref 1980-2004|Warehouse,            !- Name
  0,                                      !- North Axis {deg}
  City,                                   !- Terrain
  0.04,                                   !- Loads Convergence Tolerance Value {W}
  0.2,                                    !- Temperature Convergence Tolerance Value {deltaC}
  FullInteriorAndExterior,                !- Solar Distribution
  25,                                     !- Maximum Number of Warmup Days
  6;                                      !- Minimum Number of Warmup Days

Zone,
  Zone Warehouse Bulk A  - Story Ground,  !- Name
  -0,                                     !- Direction of Relative North {deg}
  13.7552714648696,                       !- X Origin {m}
  -26.2906564695521,                      !- Y Origin {m}
  0,                                      !- Z Origin {m}
  ,                                       !- Type
  1,                                      !- Multiplier
  ,                                       !- Ceiling Height {m}
  ,                                       !- Volume {m3}
  ,                                       !- Floor Area {m2}
  ,                                       !- Zone Inside Convection Algorithm
  ,                                       !- Zone Outside Convection Algorithm
  Yes;                                    !- Part of Total Floor Area

Space,
  Warehouse Bulk A  - Story Ground,       !- Name
  Zone Warehouse Bulk A  - Story Ground,  !- Zone Name
  ,                                       !- Ceiling Height {m}
  ,                                       !- Volume {m3}
  ,                                       !- Floor Area {m2}
  Warehouse Bulk - DOE Ref 1980-2004;     !- Space Type

SpaceList,
  Warehouse Bulk - DOE Ref 1980-2004,     !- Name
  Warehouse Bulk A  - Story Top,          !- Space Name 1
  Warehouse Bulk A  - Story Ground,       !- Space Name 2
  Warehouse Bulk B  - Story Ground,       !- Space Name 3
  Warehouse Bulk B  - Story Top,          !- Space Name 4
  Warehouse Bulk C end_a - Story Top,     !- Space Name 5
  Warehouse Bulk C  - Story Ground,       !- Space Name 6
  Warehouse Bulk A end_b - Story Ground,  !- Space Name 7
  Warehouse Bulk B end_b - Story Ground,  !- Space Name 8
  Warehouse Bulk C end_b - Story Ground,  !- Space Name 9
  Warehouse Bulk B end_a - Story Top,     !- Space Name 10
  Warehouse Bulk B end_b - Story Top,     !- Space Name 11
  Warehouse Bulk C  - Story Top,          !- Space Name 12
  Warehouse Bulk C end_b - Story Top,     !- Space Name 13
  Warehouse Bulk A end_a - Story Top,     !- Space Name 14
  Warehouse Bulk A end_b - Story Top;     !- Space Name 15

Lights,
  Warehouse Bulk Lights,                  !- Name
  Warehouse Bulk - DOE Ref 1980-2004,     !- Zone or ZoneList or Space or SpaceList Name
  Warehouse Bldg Light,                   !- Schedule Name
  Watts/Area,                             !- Design Level Calculation Method
  ,                                       !- Lighting Level {W}
  8.61112832,                             !- Watts per Zone Floor Area {W/m2}
  ,                                       !- Watts per Person {W/person}
  0,                                      !- Return Air Fraction
  0.5,                                    !- Fraction Radiant
  0.2,                                    !- Fraction Visible
  0,                                      !- Fraction Replaceable
  General;                                !- End-Use Subcategory

ScheduleTypeLimits,
  Fractional,                             !- Name
  0,                                      !- Lower Limit Value {BasedOnField A3}
  1,                                      !- Upper Limit Value {BasedOnField A3}
  Continuous;                             !- Numeric Type

Schedule:Day:Interval,
  Schedule Day 3,                         !- Name
  Fractional,                             !- Schedule Type Limits Name
  No,                                     !- Interpolate to Timestep
  24:00,                                  !- Time 1 {hh:mm}
  1;                                      !- Value Until Time 1

Schedule:Day:Interval,
  Schedule Day 24,                        !- Name
  Fractional,                             !- Schedule Type Limits Name
  No,                                     !- Interpolate to Timestep
  01:00,                                  !- Time 1 {hh:mm}
  0,                                      !- Value Until Time 1
  02:00,                                  !- Time 2 {hh:mm}
  0,                                      !- Value Until Time 2
  03:00,                                  !- Time 3 {hh:mm}
  0,                                      !- Value Until Time 3
  04:00,                                  !- Time 4 {hh:mm}
  0,                                      !- Value Until Time 4
  05:00,                                  !- Time 5 {hh:mm}
  0,                                      !- Value Until Time 5
  06:00,                                  !- Time 6 {hh:mm}
  0,                                      !- Value Until Time 6
  07:00,                                  !- Time 7 {hh:mm}
  0,                                      !- Value Until Time 7
  08:00,                                  !- Time 8 {hh:mm}
  0,                                      !- Value Until Time 8
  09:00,                                  !- Time 9 {hh:mm}
  0,                                      !- Value Until Time 9
  10:00,                                  !- Time 10 {hh:mm}
  0,                                      !- Value Until Time 10
  11:00,                                  !- Time 11 {hh:mm}
  0,                                      !- Value Until Time 11
  12:00,                                  !- Time 12 {hh:mm}
  0,                                      !- Value Until Time 12
  13:00,                                  !- Time 13 {hh:mm}
  0,                                      !- Value Until Time 13
  14:00,                                  !- Time 14 {hh:mm}
  0,                                      !- Value Until Time 14
  15:00,                                  !- Time 15 {hh:mm}
  0,                                      !- Value Until Time 15
  16:00,                                  !- Time 16 {hh:mm}
  0,                                      !- Value Until Time 16
  17:00,                                  !- Time 17 {hh:mm}
  0,                                      !- Value Until Time 17
  18:00,                                  !- Time 18 {hh:mm}
  0,                                      !- Value Until Time 18
  19:00,                                  !- Time 19 {hh:mm}
  0,                                      !- Value Until Time 19
  20:00,                                  !- Time 20 {hh:mm}
  0,                                      !- Value Until Time 20
  21:00,                                  !- Time 21 {hh:mm}
  0,                                      !- Value Until Time 21
  22:00,                                  !- Time 22 {hh:mm}
  0,                                      !- Value Until Time 22
  23:00,                                  !- Time 23 {hh:mm}
  0,                                      !- Value Until Time 23
  24:00,                                  !- Time 24 {hh:mm}
  0;                                      !- Value Until Time 24

Schedule:Day:Interval,
  Schedule Day 25,                        !- Name
  Fractional,                             !- Schedule Type Limits Name
  No,                                     !- Interpolate to Timestep
  01:00,                                  !- Time 1 {hh:mm}
  1,                                      !- Value Until Time 1
  02:00,                                  !- Time 2 {hh:mm}
  1,                                      !- Value Until Time 2
  03:00,                                  !- Time 3 {hh:mm}
  1,                                      !- Value Until Time 3
  04:00,                                  !- Time 4 {hh:mm}
  1,                                      !- Value Until Time 4
  05:00,                                  !- Time 5 {hh:mm}
  1,                                      !- Value Until Time 5
  06:00,                                  !- Time 6 {hh:mm}
  1,                                      !- Value Until Time 6
  07:00,                                  !- Time 7 {hh:mm}
  1,                                      !- Value Until Time 7
  08:00,                                  !- Time 8 {hh:mm}
  1,                                      !- Value Until Time 8
  09:00,                                  !- Time 9 {hh:mm}
  1,                                      !- Value Until Time 9
  10:00,                                  !- Time 10 {hh:mm}
  1,                                      !- Value Until Time 10
  11:00,                                  !- Time 11 {hh:mm}
  1,                                      !- Value Until Time 11
  12:00,                                  !- Time 12 {hh:mm}
  1,                                      !- Value Until Time 12
  13:00,                                  !- Time 13 {hh:mm}
  1,                                      !- Value Until Time 13
  14:00,                                  !- Time 14 {hh:mm}
  1,                                      !- Value Until Time 14
  15:00,                                  !- Time 15 {hh:mm}
  1,                                      !- Value Until Time 15
  16:00,                                  !- Time 16 {hh:mm}
  1,                                      !- Value Until Time 16
  17:00,                                  !- Time 17 {hh:mm}
  1,                                      !- Value Until Time 17
  18:00,                                  !- Time 18 {hh:mm}
  1,                                      !- Value Until Time 18
  19:00,                                  !- Time 19 {hh:mm}
  1,                                      !- Value Until Time 19
  20:00,                                  !- Time 20 {hh:mm}
  1,                                      !- Value Until Time 20
  21:00,                                  !- Time 21 {hh:mm}
  1,                                      !- Value Until Time 21
  22:00,                                  !- Time 22 {hh:mm}
  1,                                      !- Value Until Time 22
  23:00,                                  !- Time 23 {hh:mm}
  1,                                      !- Value Until Time 23
  24:00,                                  !- Time 24 {hh:mm}
  1;                                      !- Value Until Time 24

Schedule:Week:Daily,
  Warehouse Bldg Light Week Rule - Jan1-May27, !- Name
  Schedule Day 3,                         !- Sunday Schedule:Day Name
  Schedule Day 3,                         !- Monday Schedule:Day Name
  Schedule Day 3,                         !- Tuesday Schedule:Day Name
  Schedule Day 3,                         !- Wednesday Schedule:Day Name
  Schedule Day 3,                         !- Thursday Schedule:Day Name
  Schedule Day 3,                         !- Friday Schedule:Day Name
  Schedule Day 3,                         !- Saturday Schedule:Day Name
  Warehouse Bldg Light Default,           !- Holiday Schedule:Day Name
  Warehouse Bldg Light Summer Design Day, !- SummerDesignDay Schedule:Day Name
  Warehouse Bldg Light Winter Design Day, !- WinterDesignDay Schedule:Day Name
  Warehouse Bldg Light Default,           !- CustomDay1 Schedule:Day Name
  Warehouse Bldg Light Default;           !- CustomDay2 Schedule:Day Name

Schedule:Week:Daily,
  Warehouse Bldg Light Week Rule - May28-Jun3, !- Name
  Schedule Day 3,                         !- Sunday Schedule:Day Name
  Schedule Day 3,                         !- Monday Schedule:Day Name
  Schedule Day 3,                         !- Tuesday Schedule:Day Name
  Schedule Day 3,                         !- Wednesday Schedule:Day Name
  Schedule Day 24,                        !- Thursday Schedule:Day Name
  Schedule Day 25,                        !- Friday Schedule:Day Name
  Schedule Day 3,                         !- Saturday Schedule:Day Name
  Warehouse Bldg Light Default,           !- Holiday Schedule:Day Name
  Warehouse Bldg Light Summer Design Day, !- SummerDesignDay Schedule:Day Name
  Warehouse Bldg Light Winter Design Day, !- WinterDesignDay Schedule:Day Name
  Warehouse Bldg Light Default,           !- CustomDay1 Schedule:Day Name
  Warehouse Bldg Light Default;           !- CustomDay2 Schedule:Day Name

Schedule:Week:Daily,
  Warehouse Bldg Light Week Rule - Jun4-Dec31, !- Name
  Schedule Day 3,                         !- Sunday Schedule:Day Name
  Schedule Day 3,                         !- Monday Schedule:Day Name
  Schedule Day 3,                         !- Tuesday Schedule:Day Name
  Schedule Day 3,                         !- Wednesday Schedule:Day Name
  Schedule Day 3,                         !- Thursday Schedule:Day Name
  Schedule Day 3,                         !- Friday Schedule:Day Name
  Schedule Day 3,                         !- Saturday Schedule:Day Name
  Warehouse Bldg Light Default,           !- Holiday Schedule:Day Name
  Warehouse Bldg Light Summer Design Day, !- SummerDesignDay Schedule:Day Name
  Warehouse Bldg Light Winter Design Day, !- WinterDesignDay Schedule:Day Name
  Warehouse Bldg Light Default,           !- CustomDay1 Schedule:Day Name
  Warehouse Bldg Light Default;           !- CustomDay2 Schedule:Day Name

Schedule:Year,
  Warehouse Bldg Light,                   !- Name
  Fractional,                             !- Schedule Type Limits Name
  Warehouse Bldg Light Week Rule - Jan1-May27, !- Schedule:Week Name 1
  1,                                      !- Start Month 1
  1,                                      !- Start Day 1
  5,                                      !- End Month 1
  27,                                     !- End Day 1
  Warehouse Bldg Light Week Rule - May28-Jun3, !- Schedule:Week Name 2
  5,                                      !- Start Month 2
  28,                                     !- Start Day 2
  6,                                      !- End Month 2
  3,                                      !- End Day 2
  Warehouse Bldg Light Week Rule - Jun4-Dec31, !- Schedule:Week Name 3
  6,                                      !- Start Month 3
  4,                                      !- Start Day 3
  12,                                     !- End Month 3
  31;                                     !- End Day 3

Schedule:Day:Interval,
  Warehouse Bldg Light Default,           !- Name
  Fractional,                             !- Schedule Type Limits Name
  Average,                                !- Interpolate to Timestep
  06:30,                                  !- Time 1 {hh:mm}
  0.1,                                    !- Value Until Time 1
  06:40,                                  !- Time 2 {hh:mm}
  0.15,                                   !- Value Until Time 2
  06:50,                                  !- Time 3 {hh:mm}
  0.2,                                    !- Value Until Time 3
  07:00,                                  !- Time 4 {hh:mm}
  0.25,                                   !- Value Until Time 4
  07:10,                                  !- Time 5 {hh:mm}
  0.3,                                    !- Value Until Time 5
  07:20,                                  !- Time 6 {hh:mm}
  0.35,                                   !- Value Until Time 6
  07:30,                                  !- Time 7 {hh:mm}
  0.4,                                    !- Value Until Time 7
  07:40,                                  !- Time 8 {hh:mm}
  0.45,                                   !- Value Until Time 8
  07:50,                                  !- Time 9 {hh:mm}
  0.5,                                    !- Value Until Time 9
  08:00,                                  !- Time 10 {hh:mm}
  0.55,                                   !- Value Until Time 10
  08:09,                                  !- Time 11 {hh:mm}
  0.6,                                    !- Value Until Time 11
  08:19,                                  !- Time 12 {hh:mm}
  0.65,                                   !- Value Until Time 12
  08:29,                                  !- Time 13 {hh:mm}
  0.699999999999999,                      !- Value Until Time 13
  08:30,                                  !- Time 14 {hh:mm}
  0.7,                                    !- Value Until Time 14
  08:39,                                  !- Time 15 {hh:mm}
  0.733333333333333,                      !- Value Until Time 15
  08:49,                                  !- Time 16 {hh:mm}
  0.766666666666666,                      !- Value Until Time 16
  08:59,                                  !- Time 17 {hh:mm}
  0.8,                                    !- Value Until Time 17
  09:09,                                  !- Time 18 {hh:mm}
  0.833333333333333,                      !- Value Until Time 18
  09:19,                                  !- Time 19 {hh:mm}
  0.866666666666666,                      !- Value Until Time 19
  09:29,                                  !- Time 20 {hh:mm}
  0.899999999999999,                      !- Value Until Time 20
  09:30,                                  !- Time 21 {hh:mm}
  0.9,                                    !- Value Until Time 21
  11:30,                                  !- Time 22 {hh:mm}
  0.9,                                    !- Value Until Time 22
  11:39,                                  !- Time 23 {hh:mm}
  0.883333333333333,                      !- Value Until Time 23
  11:49,                                  !- Time 24 {hh:mm}
  0.866666666666667,                      !- Value Until Time 24
  11:59,                                  !- Time 25 {hh:mm}
  0.85,                                   !- Value Until Time 25
  12:09,                                  !- Time 26 {hh:mm}
  0.833333333333334,                      !- Value Until Time 26
  12:19,                                  !- Time 27 {hh:mm}
  0.816666666666667,                      !- Value Until Time 27