
OS:Version,
  {a9223d4c-8423-4d7b-ae62-68b2c7e3d4de}, !- Handle
  3.6.0;                                  !- Version Identifier

OS:Schedule:Constant,
  {2200450b-527b-4e5b-9911-63d7b634112a}, !- Handle
  Always On Discrete,                     !- Name
  {802d38de-a6ef-4180-b01f-0c0acf082f27}, !- Schedule Type Limits Name
  1;                                      !- Value

OS:ScheduleTypeLimits,
  {802d38de-a6ef-4180-b01f-0c0acf082f27}, !- Handle
  Always On Discrete Limits,              !- Name
  0,                                      !- Lower Limit Value
  1,                                      !- Upper Limit Value
  Discrete,                               !- Numeric Type
  Availability;                           !- Unit Type

OS:Site,
  {e4e0cf83-aa67-462b-ac86-dd69d24de0d1}, !- Handle
  Kodiak Airport,                         !- Name
  57.75,                                  !- Latitude {deg}
  -152.5,                                 !- Longitude {deg}
  -9,                                     !- Time Zone {hr}
  5,                                      !- Elevation {m}
  City;                                   !- Terrain

OS:SimulationControl,
  {fe5b5f3c-f637-4fd1-a2b3-f4d09456dccb}, !- Handle
  Yes,                                    !- Do Zone Sizing Calculation
  Yes,                                    !- Do System Sizing Calculation
  Yes,                                    !- Do Plant Sizing Calculation
  No,                                     !- Run Simulation for Sizing Periods
  Yes,                                    !- Run Simulation for Weather File Run Periods
  0.04,                                   !- Loads Convergence Tolerance Value {W}
  0.2,                                    !- Temperature Convergence Tolerance Value {deltaC}
  FullInteriorAndExterior,                !- Solar Distribution
  25,                                     !- Maximum Number of Warmup Days
  6,                                      !- Minimum Number of Warmup Days
  No,                                     !- Do HVAC Sizing Simulation for Sizing Periods
  1;                                      !- Maximum Number of HVAC Sizing Simulation Passes

OS:Connection,
  {d367abd9-ef96-4df2-a4a5-60b4b9f5779f}, !- Handle
  ,                                       !- Source Object
  11,                                     !- Outlet Port
  ,                                       !- Target Object
  2;                                      !- Inlet Port

OS:Connection,
  {b76c9257-2ba1-41ca-b928-7e4cece1fb38}, !- Handle
  ,                                       !- Source Object
  11,                                     !- Outlet Port
  ,                                       !- Target Object
  2;                                      !- Inlet Port

OS:Connection,
  {3e98f27d-1e5c-47bf-b1dd-320cc71dc280}, !- Handle
  ,                                       !- Source Object
  11,                                     !- Outlet Port
  ,                                       !- Target Object
  2;                                      !- Inlet Port

OS:Connection,
  {4d957a31-f699-4eae-93e7-35cb0402bdc3}, !- Handle
  ,                                       !- Source Object
  11,                                     !- Outlet Port
  ,                                       !- Target Object
  2;                                      !- Inlet Port

OS:Connection,
  {99cfc414-45c1-4be7-8757-3ae36bc2af42}, !- Handle
  ,                                       !- Source Object
  11,                                     !- Outlet Port
  ,                                       !- Target Object
  2;                                      !- Inlet Port

OS:Output:Meter,
  {abc5d571-df7f-47b1-bf8b-892a6dadede3}, !- Handle
  NaturalGas:Facility,                    !- Name
  Hourly,                                 !- Reporting Frequency
  True,                                   !- Meter File Only
  False;                                  !- Cumulative

OS:Connection,
  {3cc89c32-b209-45a8-aee8-40997f52820c}, !- Handle
  ,                                       !- Source Object
  11,                                     !- Outlet Port
  ,                                       !- Target Object
  2;                                      !- Inlet Port

OS:ConvergenceLimits,
  {257bad81-3887-44d2-9561-57968d0ebe2d}, !- Handle
  1,                                      !- Minimum System Timestep {minutes}
  20;                                     !- Maximum HVAC Iterations

OS:HeatBalanceAlgorithm,
  {30aa4e32-ecc1-41fa-8e20-75c7b3a9c558}, !- Handle
  ConductionTransferFunction,             !- Algorithm
  200;                                    !- Surface Temperature Upper Limit {C}

OS:Timestep,
  {eb583d9a-28e0-49c6-8519-cae0088b5073}, !- Handle
  1;                                      !- Number of Timesteps per Hour

OS:Sizing:Parameters,
  {11b5cbd0-c450-4b2c-aa14-62edeaca5d67}, !- Handle
  1.25,                                   !- Heating Sizing Factor
  1.15,                                   !- Cooling Sizing Factor
  1;                                      !- Timesteps in Averaging Window

OS:Output:Meter,
  {15699204-c979-4451-b40c-3b532d8c0da9}, !- Handle
  ElectricityNet:Facility,                !- Name
  Hourly,                                 !- Reporting Frequency
  True,                                   !- Meter File Only
  False;                                  !- Cumulative

OS:Output:Meter,
  {d446ed18-52cc-487c-bf58-c78a8edaa642}, !- Handle
  Electricity:Facility,                   !- Name
  Hourly,                                 !- Reporting Frequency
  True,                                   !- Meter File Only
  False;                                  !- Cumulative

OS:RunPeriod,
  {94267dee-950c-4c53-aa76-7a4b668d0573}, !- Handle
  Run Period 1,                           !- Name
  1,                                      !- Begin Month
  1,                                      !- Begin Day of Month
  12,                                     !- End Month
  31,                                     !- End Day of Month
  No,                                     !- Use Weather File Holidays and Special Days
  No,                                     !- Use Weather File Daylight Saving Period
  No,                                     !- Apply Weekend Holiday Rule
  Yes,                                    !- Use Weather File Rain Indicators
  Yes,                                    !- Use Weather File Snow Indicators
  1;                                      !- Number of Times Runperiod to be Repeated

OS:YearDescription,
  {c909b14d-25f4-4587-81ac-13c1e4bb0508}, !- Handle
  ,                                       !- Calendar Year
  Sunday,                                 !- Day of Week for Start Day
  ;                                       !- Is Leap Year

OS:ShadowCalculation,
  {208066fd-3337-431a-92af-1b641ddb4c8e}, !- Handle
  PolygonClipping,                        !- Shading Calculation Method
  ,                                       !- Shading Calculation Update Frequency Method
  30,                                     !- Shading Calculation Update Frequency
  15000,                                  !- Maximum Figures in Shadow Overlap Calculations
  ,                                       !- Polygon Clipping Algorithm
  512,                                    !- Pixel Counting Resolution
  ,                                       !- Sky Diffuse Modeling Algorithm
  No,                                     !- Output External Shading Calculation Results
  No,                                     !- Disable Self-Shading Within Shading Zone Groups
  No;                                     !- Disable Self-Shading From Shading Zone Groups to Other Zones

OS:Facility,
  {8b48fb85-9058-4291-a948-6088f0592bb3}; !- Handle

OS:ScheduleTypeLimits,
  {afe44be9-7e6f-49dc-a06f-b601c45b8b3b}, !- Handle
  Fractional,                             !- Name
  0,                                      !- Lower Limit Value
  1,                                      !- Upper Limit Value
  Continuous;                             !- Numeric Type

OS:Schedule:Ruleset,
  {6d4b02a4-9b00-41ad-9b2b-98232275e1ac}, !- Handle
  Clothing Schedule,                      !- Name
  {4b5cb6f5-3ae7-4996-8233-4c9c730ed80e}, !- Schedule Type Limits Name
  {9c78e19b-5ec3-46c6-8936-93a0a2ac5811}; !- Default Day Schedule Name

OS:Schedule:Day,
  {9c78e19b-5ec3-46c6-8936-93a0a2ac5811}, !- Handle
  Clothing Schedule Default Winter Clothes, !- Name
  {4b5cb6f5-3ae7-4996-8233-4c9c730ed80e}, !- Schedule Type Limits Name
  ,                                       !- Interpolate to Timestep
  24,                                     !- Hour 1
  0,                                      !- Minute 1
  1;                                      !- Value Until Time 1

OS:Schedule:Rule,
  {e4095fe8-b4b1-4136-98b2-923514c27eba}, !- Handle
  Schedule Rule 3,                        !- Name
  {6d4b02a4-9b00-41ad-9b2b-98232275e1ac}, !- Schedule Ruleset Name
  0,                                      !- Rule Order
  {54018041-00c1-4810-ba77-330b9cc691b5}, !- Day Schedule Name
  ,                                       !- Apply Sunday
  ,                                       !- Apply Monday
  ,                                       !- Apply Tuesday
  ,                                       !- Apply Wednesday
  ,                                       !- Apply Thursday
  ,                                       !- Apply Friday
  ,                                       !- Apply Saturday
  DateRange,                              !- Date Specification Type
  5,                                      !- Start Month
  1,                                      !- Start Day
  9,                                      !- End Month
  30;                                     !- End Day

OS:Schedule:Day,
  {54018041-00c1-4810-ba77-330b9cc691b5}, !- Handle
  Clothing Schedule Summer Clothes,       !- Name
  {4b5cb6f5-3ae7-4996-8233-4c9c730ed80e}, !- Schedule Type Limits Name
  ,                                       !- Interpolate to Timestep
  24,                                     !- Hour 1
  0,                                      !- Minute 1
  0.5;                                    !- Value Until Time 1

OS:ScheduleTypeLimits,
  {4b5cb6f5-3ae7-4996-8233-4c9c730ed80e}, !- Handle
  ClothingInsulation,                     !- Name
  0,                                      !- Lower Limit Value
  ,                                       !- Upper Limit Value
  Continuous,                             !- Numeric Type
  ClothingInsulation;                     !- Unit Type

OS:Schedule:Ruleset,
  {62657ac8-4edb-494b-8f60-c4ae80ae93ed}, !- Handle
  Air Velocity Schedule,                  !- Name
  {b8dd26ac-7979-4544-b6d6-bad9df0e939d}, !- Schedule Type Limits Name
  {b88e5d43-b7b5-4de3-adf2-1d09134f056e}; !- Default Day Schedule Name

OS:Schedule:Day,
  {b88e5d43-b7b5-4de3-adf2-1d09134f056e}, !- Handle
  Air Velocity Schedule Default,          !- Name
  {b8dd26ac-7979-4544-b6d6-bad9df0e939d}, !- Schedule Type Limits Name
  ,                                       !- Interpolate to Timestep
  24,                                     !- Hour 1
  0,                                      !- Minute 1
  0.2;                                    !- Value Until Time 1

OS:ScheduleTypeLimits,
  {b8dd26ac-7979-4544-b6d6-bad9df0e939d}, !- Handle
  Velocity,                               !- Name
  0,                                      !- Lower Limit Value
  ,                                       !- Upper Limit Value
  Continuous,                             !- Numeric Type
  Velocity;                               !- Unit Type

OS:Schedule:Ruleset,
  {b10bea0c-327f-4471-a2a8-eabd117121f6}, !- Handle
  Work Efficiency Schedule,               !- Name
  {afe44be9-7e6f-49dc-a06f-b601c45b8b3b}, !- Schedule Type Limits Name
  {15d74a8b-e0e7-42c0-bacb-61326ff769ac}; !- Default Day Schedule Name

OS:Schedule:Day,
  {15d74a8b-e0e7-42c0-bacb-61326ff769ac}, !- Handle
  Work Efficiency Schedule Default,       !- Name
  {afe44be9-7e6f-49dc-a06f-b601c45b8b3b}, !- Schedule Type Limits Name
  ,                                       !- Interpolate to Timestep
  24,                                     !- Hour 1
  0,                                      !- Minute 1
  0;                                      !- Value Until Time 1

OS:Lights:Definition,
  {be48d715-a549-4d31-ad65-5e71897ae424}, !- Handle
  Office WholeBuilding - Sm Office Lights Definition, !- Name
  Watts/Area,                             !- Design Level Calculation Method
  ,                                       !- Lighting Level {W}
  8.82640654170197,                       !- Watts per Space Floor Area {W/m2}
  ,                                       !- Watts per Person {W/person}
  0.7,                                    !- Fraction Radiant
  0.2,                                    !- Fraction Visible
  0;                                      !- Return Air Fraction

OS:AdditionalProperties,
  {1ef98389-838d-4578-a84d-c2f86dc9bcba}, !- Handle
  {be48d715-a549-4d31-ad65-5e71897ae424}, !- Object Name
  lpd_fraction_linear_fluorescent,        !- Feature Name 1
  Double,                                 !- Feature Data Type 1
  1;                                      !- Feature Value 1

OS:ClimateZones,
  {b6ed20fb-d597-4253-8852-4cccb51b4ce7}, !- Handle
  ASHRAE,                                 !- Climate Zone Institution Name 1
  ANSI/ASHRAE Standard 169,               !- Climate Zone Document Name 1
  2006,                                   !- Climate Zone Document Year 1
  8A,                                     !- Climate Zone Value 1
  CEC,                                    !- Climate Zone Institution Name 2
  California Climate Zone Descriptions,   !- Climate Zone Document Name 2
  1995,                                   !- Climate Zone Document Year 2
  ;                                       !- Climate Zone Value 2

OS:ScheduleTypeLimits,
  {0dff6463-e2c7-4c75-b57a-08b8f2b1d7d6}, !- Handle
  ActivityLevel,                          !- Name
  0,                                      !- Lower Limit Value
  ,                                       !- Upper Limit Value
  Continuous,                             !- Numeric Type
  ActivityLevel;                          !- Unit Type

OS:ScheduleTypeLimits,
  {6a032351-88c1-4a2d-9eaf-2401e8017a87}, !- Handle
  Temperature,                            !- Name
  ,                                       !- Lower Limit Value
  ,                                       !- Upper Limit Value
  Continuous,                             !- Numeric Type
  Temperature;                            !- Unit Type

OS:SurfaceConvectionAlgorithm:Inside,
  {e1aadf8e-9cff-4283-bb74-f1fa31a01ef0}, !- Handle
  TARP;                                   !- Algorithm

OS:SurfaceConvectionAlgorithm:Outside,
  {87127af1-9590-4b2e-9620-90937534994d}, !- Handle
  TARP;                                   !- Algorithm

OS:Site:WaterMainsTemperature,
  {0780c102-fb11-44fb-84df-386bc20298ab}, !- Handle
  Correlation,                            !- Calculation Method
  ,                                       !- Temperature Schedule Name
  -1.525,                                 !- Annual Average Outdoor Air Temperature {C}
  36.2;                                   !- Maximum Difference In Monthly Average Outdoor Air Temperatures {deltaC}

OS:ScheduleTypeLimits,
  {3b8f51ef-a01f-41c5-8bc0-bda1f9856b99}, !- Handle
  OnOff,                                  !- Name
  0,                                      !- Lower Limit Value
  1,                                      !- Upper Limit Value
  Discrete,                               !- Numeric Type
  Availability;                           !- Unit Type

OS:AvailabilityManager:NightCycle,
  {ef069d9f-a860-4d47-90f0-e20466987aee}, !- Handle
  Availability Manager Night Cycle 1,     !- Name
  {2200450b-527b-4e5b-9911-63d7b634112a}, !- Applicability Schedule
  ,                                       !- Fan Schedule
  CycleOnAny,                             !- Control Type
  1,                                      !- Thermostat Tolerance {deltaC}
  ,                                       !- Cycling Run Time Control Type
  1800,                                   !- Cycling Run Time {s}
  {0a812646-9c97-45de-9be5-d814b54f8d22}, !- Control Zone or Zone List Name
  {3d1a18b9-de09-45e2-8661-92c79cf6166e}, !- Cooling Control Zone or Zone List Name
  {4d401079-0596-4ce1-ad57-505150daaa91}, !- Heating Control Zone or Zone List Name
  {c4fd2b77-ffad-41df-be88-869e80ed02bc}; !- Heating Zone Fans Only Zone or Zone List Name

OS:ModelObjectList,
  {0a812646-9c97-45de-9be5-d814b54f8d22}, !- Handle
  Availability Manager Night Cycle 1 Control Zone List; !- Name

OS:ModelObjectList,
  {3d1a18b9-de09-45e2-8661-92c79cf6166e}, !- Handle
  Availability Manager Night Cycle 1 Cooling Control Zone List; !- Name

OS:ModelObjectList,
  {4d401079-0596-4ce1-ad57-505150daaa91}, !- Handle
  Availability Manager Night Cycle 1 Heating Control Zone List; !- Name

OS:ModelObjectList,
  {c4fd2b77-ffad-41df-be88-869e80ed02bc}, !- Handle
  Availability Manager Night Cycle 1 Heating Zone Fans Only Zone List; !- Name

OS:Connection,
  {7dcd66ae-cda1-40b6-b023-c3d4ff41b4a2}, !- Handle
  ,                                       !- Source Object
  3,                                      !- Outlet Port
  ,                                       !- Target Object
  2;                                      !- Inlet Port

OS:Connection,
  {1b823304-7cde-4228-a5b4-185764642d8e}, !- Handle
  ,                                       !- Source Object
  2,                                      !- Outlet Port
  ,                                       !- Target Object
  2;                                      !- Inlet Port

OS:AvailabilityManager:NightCycle,
  {6acd02e3-1d08-4eae-9b20-f8f4f9b80931}, !- Handle
  Availability Manager Night Cycle 2,     !- Name
  {2200450b-527b-4e5b-9911-63d7b634112a}, !- Applicability Schedule
  ,                                       !- Fan Schedule
  CycleOnAny,                             !- Control Type
  1,                                      !- Thermostat Tolerance {deltaC}
  ,                                       !- Cycling Run Time Control Type
  1800,                                   !- Cycling Run Time {s}
  {147c2697-a506-43e4-8b03-bb5d2a6f83e4}, !- Control Zone or Zone List Name
  {197b4d7d-900a-402d-b75d-3d3054c7bb53}, !- Cooling Control Zone or Zone List Name
  {b6a8e1e7-2860-4c8c-8ea7-fb2d4156ba66}, !- Heating Control Zone or Zone List Name
  {29c0f7c2-6381-4500-9702-48f169c95f64}; !- Heating Zone Fans Only Zone or Zone List Name

OS:ModelObjectList,
  {147c2697-a506-43e4-8b03-bb5d2a6f83e4}, !- Handle
  Availability Manager Night Cycle 2 Control Zone List; !- Name

OS:ModelObjectList,
  {197b4d7d-900a-402d-b75d-3d3054c7bb53}, !- Handle
  Availability Manager Night Cycle 2 Cooling Control Zone List; !- Name

OS:ModelObjectList,
  {b6a8e1e7-2860-4c8c-8ea7-fb2d4156ba66}, !- Handle
  Availability Manager Night Cycle 2 Heating Control Zone List; !- Name

OS:ModelObjectList,
  {29c0f7c2-6381-4500-9702-48f169c95f64}, !- Handle
  Availability Manager Night Cycle 2 Heating Zone Fans Only Zone List; !- Name

OS:Connection,
  {f7f9b2bd-ad08-4b3f-9623-545b16f0fbaa}, !- Handle
  ,                                       !- Source Object
  3,                                      !- Outlet Port
  ,                                       !- Target Object
  2;                                      !- Inlet Port

OS:Connection,
  {c2f7683c-0705-4118-ad96-dac30f13ab06}, !- Handle
  ,                                       !- Source Object
  2,                                      !- Outlet Port
  ,                                       !- Target Object
  2;                                      !- Inlet Port

OS:AvailabilityManager:NightCycle,
  {a07adbc4-bfd6-475a-9846-c8b179a93bee}, !- Handle
  Availability Manager Night Cycle 3,     !- Name
  {2200450b-527b-4e5b-9911-63d7b634112a}, !- Applicability Schedule
  ,                                       !- Fan Schedule
  CycleOnAny,                             !- Control Type
  1,                                      !- Thermostat Tolerance {deltaC}
  ,                                       !- Cycling Run Time Control Type
  1800,                                   !- Cycling Run Time {s}
  {5e8fffba-e65e-4d33-8c5f-7e3463de3862}, !- Control Zone or Zone List Name
  {7d802a81-0628-4433-a425-c80508abcd8c}, !- Cooling Control Zone or Zone List Name
  {85a2b3f9-070e-4ec2-8751-badecdc1dbbe}, !- Heating Control Zone or Zone List Name
  {12c1083c-e90d-4713-b097-bc6fc3f468ae}; !- Heating Zone Fans Only Zone or Zone List Name

OS:ModelObjectList,
  {5e8fffba-e65e-4d33-8c5f-7e3463de3862}, !- Handle
  Availability Manager Night Cycle 3 Control Zone List; !- Name

OS:ModelObjectList,
  {7d802a81-0628-4433-a425-c80508abcd8c}, !- Handle
  Availability Manager Night Cycle 3 Cooling Control Zone List; !- Name

OS:ModelObjectList,
  {85a2b3f9-070e-4ec2-8751-badecdc1dbbe}, !- Handle
  Availability Manager Night Cycle 3 Heating Control Zone List; !- Name

OS:ModelObjectList,
  {12c1083c-e90d-4713-b097-bc6fc3f468ae}, !- Handle
  Availability Manager Night Cycle 3 Heating Zone Fans Only Zone List; !- Name

OS:Connection,
  {bcca9734-e379-4660-aed5-08c520a9fd90}, !- Handle
  ,                                       !- Source Object
  3,                                      !- Outlet Port
  ,                                       !- Target Object
  2;                                      !- Inlet Port

OS:Connection,
  {13ac1673-cfb0-4aa2-a76d-335aeaa701fe}, !- Handle
  ,                                       !- Source Object
  2,                                      !- Outlet Port
  ,                                       !- Target Object
  2;                                      !- Inlet Port

OS:AvailabilityManager:NightCycle,
  {547ca268-238f-4164-8dfd-306beaf8c889}, !- Handle
  Availability Manager Night Cycle 4,     !- Name
  {2200450b-527b-4e5b-9911-63d7b634112a}, !- Applicability Schedule
  ,                                       !- Fan Schedule
  CycleOnAny,                             !- Control Type
  1,                                      !- Thermostat Tolerance {deltaC}
  ,                                       !- Cycling Run Time Control Type
  1800,                                   !- Cycling Run Time {s}
  {bc36272e-faa1-42e3-b81d-77c1b280a6e4}, !- Control Zone or Zone List Name
  {a1a05ef3-9a79-4c8a-98a5-a5c6420021f9}, !- Cooling Control Zone or Zone List Name
  {44b72280-ec6b-41ba-9170-79633fb0362e}, !- Heating Control Zone or Zone List Name
  {ce51a78c-f765-418c-9420-bd96a455f845}; !- Heating Zone Fans Only Zone or Zone List Name

OS:ModelObjectList,
  {bc36272e-faa1-42e3-b81d-77c1b280a6e4}, !- Handle
  Availability Manager Night Cycle 4 Control Zone List; !- Name

OS:ModelObjectList,
  {a1a05ef3-9a79-4c8a-98a5-a5c6420021f9}, !- Handle
  Availability Manager Night Cycle 4 Cooling Control Zone List; !- Name

OS:ModelObjectList,
  {44b72280-ec6b-41ba-9170-79633fb0362e}, !- Handle
  Availability Manager Night Cycle 4 Heating Control Zone List; !- Name

OS:ModelObjectList,
  {ce51a78c-f765-418c-9420-bd96a455f845}, !- Handle
  Availability Manager Night Cycle 4 Heating Zone Fans Only Zone List; !- Name

OS:Connection,
  {cb26a062-dede-4dbd-83a7-cfdfa30596b8}, !- Handle
  ,                                       !- Source Object
  3,                                      !- Outlet Port
  ,                                       !- Target Object
  2;                                      !- Inlet Port

OS:Connection,
  {f115528a-a294-4384-8be3-3b1f3cbd27b6}, !- Handle
  ,                                       !- Source Object
  2,                                      !- Outlet Port
  ,                                       !- Target Object
  2;                                      !- Inlet Port

OS:AvailabilityManager:NightCycle,
  {7a81649b-7b00-4260-8a70-e35d832a4985}, !- Handle
  Availability Manager Night Cycle 5,     !- Name
  {2200450b-527b-4e5b-9911-63d7b634112a}, !- Applicability Schedule
  ,                                       !- Fan Schedule
  CycleOnAny,                             !- Control Type
  1,                                      !- Thermostat Tolerance {deltaC}
  ,                                       !- Cycling Run Time Control Type
  1800,                                   !- Cycling Run Time {s}
  {93e103ea-471d-41cb-ba56-e145c8ada60b}, !- Control Zone or Zone List Name
  {1b311b5a-41ec-463c-a1f2-970896f5ee51}, !- Cooling Control Zone or Zone List Name
  {491d9317-bad5-4778-a721-3aff0fa108c0}, !- Heating Control Zone or Zone List Name
  {249c6bb7-18d0-4a24-bdd0-cee141364cb9}; !- Heating Zone Fans Only Zone or Zone List Name

OS:ModelObjectList,
  {93e103ea-471d-41cb-ba56-e145c8ada60b}, !- Handle
  Availability Manager Night Cycle 5 Control Zone List; !- Name

OS:ModelObjectList,
  {1b311b5a-41ec-463c-a1f2-970896f5ee51}, !- Handle
  Availability Manager Night Cycle 5 Cooling Control Zone List; !- Name

OS:ModelObjectList,
  {491d9317-bad5-4778-a721-3aff0fa108c0}, !- Handle
  Availability Manager Night Cycle 5 Heating Control Zone List; !- Name

OS:ModelObjectList,
  {249c6bb7-18d0-4a24-bdd0-cee141364cb9}, !- Handle
  Availability Manager Night Cycle 5 Heating Zone Fans Only Zone List; !- Name

OS:Connection,
  {b7d5c7ff-041c-4160-83ef-45de2d3ebc98}, !- Handle
  ,                                       !- Source Object
  3,                                      !- Outlet Port
  ,                                       !- Target Object
  2;                                      !- Inlet Port

OS:Connection,
  {9e0307d2-45ac-4ea6-8aef-240458f41ce9}, !- Handle
  ,                                       !- Source Object
  2,                                      !- Outlet Port
  ,                                       !- Target Object
  2;                                      !- Inlet Port

OS:Material:NoMass,
  {7a5f1f9e-b8ca-4338-b29d-727a239eb5ee}, !- Handle
  CP02 CARPET PAD,                        !- Name
  VeryRough,                              !- Roughness
  0.21648,                                !- Thermal Resistance {m2-K/W}
  0.9,                                    !- Thermal Absorptance
  0.7,                                    !- Solar Absorptance
  0.8;                                    !- Visible Absorptance

OS:Material,
  {583243e8-6dcb-4bef-ade8-83c5478cf847}, !- Handle
  100mm Normalweight concrete floor,      !- Name
  MediumSmooth,                           !- Roughness
  0.1016,                                 !- Thickness {m}
  2.31,                                   !- Conductivity {W/m-K}
  2322,                                   !- Density {kg/m3}
  832;                                    !- Specific Heat {J/kg-K}

OS:Material,
  {a65e9eb9-ce50-4b60-bf6d-794ddcb587a9}, !- Handle
  G01 13mm gypsum board,                  !- Name
  Smooth,                                 !- Roughness
  0.0127,                                 !- Thickness {m}
  0.16,                                   !- Conductivity {W/m-K}
  800,                                    !- Density {kg/m3}
  1090,                                   !- Specific Heat {J/kg-K}
  0.9,                                    !- Thermal Absorptance
  0.7,                                    !- Solar Absorptance
  0.5;                                    !- Visible Absorptance

OS:Material,
  {64807240-8e8d-4808-a9f5-71af268141bc}, !- Handle
  4 in. Normalweight Concrete Floor,      !- Name
  MediumRough,                            !- Roughness
  0.1016,                                 !- Thickness {m}
  2.31,                                   !- Conductivity {W/m-K}
  2321.99999999999,                       !- Density {kg/m3}
  831.999999999997,                       !- Specific Heat {J/kg-K}
  0.9,                                    !- Thermal Absorptance
  0.7,                                    !- Solar Absorptance
  0.7;                                    !- Visible Absorptance

OS:Material:NoMass,
  {d94f657f-40b8-48a9-a7a5-2e4165ae14d3}, !- Handle
  Typical Carpet Pad,                     !- Name
  Smooth,                                 !- Roughness
  0.216479986995276,                      !- Thermal Resistance {m2-K/W}
  0.9,                                    !- Thermal Absorptance
  0.7,                                    !- Solar Absorptance
  0.8;                                    !- Visible Absorptance

OS:Construction,
  {641ec048-fcf7-412b-868f-c59e0dbf7717}, !- Handle
  Typical Interior Floor,                 !- Name
  {65c4d386-c110-4c6b-acec-815ea9733e51}, !- Surface Rendering Name
  {583243e8-6dcb-4bef-ade8-83c5478cf847}, !- Layer 1
  {7a5f1f9e-b8ca-4338-b29d-727a239eb5ee}; !- Layer 2

OS:StandardsInformation:Construction,
  {3a5f08c5-c38c-4c03-9601-12154183d6c2}, !- Handle
  {641ec048-fcf7-412b-868f-c59e0dbf7717}, !- Construction Name
  InteriorFloor,                          !- Intended Surface Type
  ;                                       !- Standards Construction Type

OS:Construction,
  {9b18da5a-64bc-4a3a-a823-d64f2c6f40a7}, !- Handle
  Typical Interior Wall,                  !- Name
  {7ca7f200-27e0-464f-a1d2-3e11c21c9a64}, !- Surface Rendering Name
  {a65e9eb9-ce50-4b60-bf6d-794ddcb587a9}, !- Layer 1
  {a65e9eb9-ce50-4b60-bf6d-794ddcb587a9}; !- Layer 2

OS:StandardsInformation:Construction,
  {3eb86823-c52b-4be4-936b-70898ff3e6d1}, !- Handle
  {9b18da5a-64bc-4a3a-a823-d64f2c6f40a7}, !- Construction Name
  InteriorWall,                           !- Intended Surface Type
  ;                                       !- Standards Construction Type

OS:Construction,
  {27ce3ce2-fe4b-4a01-9364-dd6f42aff90a}, !- Handle
  Typical Interior Ceiling,               !- Name
  {21a8bca6-1ab7-4ede-905c-6bb4be5a4993}, !- Surface Rendering Name