
Version,
  23.1;                                   !- Version Identifier

Timestep,
  1;                                      !- Number of Timesteps per Hour

LifeCycleCost:Parameters,
  Life Cycle Cost Parameters,             !- Name
  EndOfYear,                              !- Discounting Convention
  ConstantDollar,                         !- Inflation Approach
  0.03,                                   !- Real Discount Rate
  ,                                       !- Nominal Discount Rate
  ,                                       !- Inflation
  ,                                       !- Base Date Month
  2011,                                   !- Base Date Year
  ,                                       !- Service Date Month
  2011,                                   !- Service Date Year
  25,                                     !- Length of Study Period in Years
  ,                                       !- Tax rate
  None;                                   !- Depreciation Method

LifeCycleCost:UsePriceEscalation,
  U.S. Avg  Commercial-Electricity,       !- Name
  Electricity,                            !- Resource
  2011,                                   !- Escalation Start Year
  January,                                !- Escalation Start Month
  0.9838,                                 !- Year Escalation 1
  0.9730,                                 !- Year Escalation 2
  0.9632,                                 !- Year Escalation 3
  0.9611,                                 !- Year Escalation 4
  0.9571,                                 !- Year Escalation 5
  0.9553,                                 !- Year Escalation 6
  0.9539,                                 !- Year Escalation 7
  0.9521,                                 !- Year Escalation 8
  0.9546,                                 !- Year Escalation 9
  0.9550,                                 !- Year Escalation 10
  0.9553,                                 !- Year Escalation 11
  0.9564,                                 !- Year Escalation 12
  0.9575,                                 !- Year Escalation 13
  0.9596,                                 !- Year Escalation 14
  0.9618,                                 !- Year Escalation 15
  0.9614,                                 !- Year Escalation 16
  0.9618,                                 !- Year Escalation 17
  0.9618,                                 !- Year Escalation 18
  0.9593,                                 !- Year Escalation 19
  0.9589,                                 !- Year Escalation 20
  0.9607,                                 !- Year Escalation 21
  0.9625,                                 !- Year Escalation 22
  0.9650,                                 !- Year Escalation 23
  0.9708,                                 !- Year Escalation 24
  0.9751,                                 !- Year Escalation 25
  0.9762,                                 !- Year Escalation 26
  0.9766,                                 !- Year Escalation 27
  0.9766,                                 !- Year Escalation 28
  0.9769,                                 !- Year Escalation 29
  0.9773;                                 !- Year Escalation 30

LifeCycleCost:UsePriceEscalation,
  U.S. Avg  Commercial-Distillate Oil,    !- Name
  FuelOilNo1,                             !- Resource
  2011,                                   !- Escalation Start Year
  January,                                !- Escalation Start Month
  0.9714,                                 !- Year Escalation 1
  0.9730,                                 !- Year Escalation 2
  0.9942,                                 !- Year Escalation 3
  1.0164,                                 !- Year Escalation 4
  1.0541,                                 !- Year Escalation 5
  1.0928,                                 !- Year Escalation 6
  1.1267,                                 !- Year Escalation 7
  1.1580,                                 !- Year Escalation 8
  1.1792,                                 !- Year Escalation 9
  1.1967,                                 !- Year Escalation 10
  1.2200,                                 !- Year Escalation 11
  1.2333,                                 !- Year Escalation 12
  1.2566,                                 !- Year Escalation 13
  1.2709,                                 !- Year Escalation 14
  1.2826,                                 !- Year Escalation 15
  1.2985,                                 !- Year Escalation 16
  1.3102,                                 !- Year Escalation 17
  1.3250,                                 !- Year Escalation 18
  1.3261,                                 !- Year Escalation 19
  1.3282,                                 !- Year Escalation 20
  1.3324,                                 !- Year Escalation 21
  1.3356,                                 !- Year Escalation 22
  1.3431,                                 !- Year Escalation 23
  1.3510,                                 !- Year Escalation 24
  1.3568,                                 !- Year Escalation 25
  1.3606,                                 !- Year Escalation 26
  1.3637,                                 !- Year Escalation 27
  1.3674,                                 !- Year Escalation 28
  1.3706,                                 !- Year Escalation 29
  1.3743;                                 !- Year Escalation 30

LifeCycleCost:UsePriceEscalation,
  U.S. Avg  Commercial-Residual Oil,      !- Name
  FuelOilNo2,                             !- Resource
  2011,                                   !- Escalation Start Year
  January,                                !- Escalation Start Month
  0.8469,                                 !- Year Escalation 1
  0.8257,                                 !- Year Escalation 2
  0.8681,                                 !- Year Escalation 3
  0.8988,                                 !- Year Escalation 4
  0.9289,                                 !- Year Escalation 5
  0.9604,                                 !- Year Escalation 6
  0.9897,                                 !- Year Escalation 7
  1.0075,                                 !- Year Escalation 8
  1.0314,                                 !- Year Escalation 9
  1.0554,                                 !- Year Escalation 10
  1.0861,                                 !- Year Escalation 11
  1.1278,                                 !- Year Escalation 12
  1.1497,                                 !- Year Escalation 13
  1.1620,                                 !- Year Escalation 14
  1.1743,                                 !- Year Escalation 15
  1.1852,                                 !- Year Escalation 16
  1.1948,                                 !- Year Escalation 17
  1.2037,                                 !- Year Escalation 18
  1.2071,                                 !- Year Escalation 19
  1.2119,                                 !- Year Escalation 20
  1.2139,                                 !- Year Escalation 21
  1.2194,                                 !- Year Escalation 22
  1.2276,                                 !- Year Escalation 23
  1.2365,                                 !- Year Escalation 24
  1.2420,                                 !- Year Escalation 25
  1.2461,                                 !- Year Escalation 26
  1.2509,                                 !- Year Escalation 27
  1.2550,                                 !- Year Escalation 28
  1.2591,                                 !- Year Escalation 29
  1.2638;                                 !- Year Escalation 30

LifeCycleCost:UsePriceEscalation,
  U.S. Avg  Commercial-Natural gas,       !- Name
  NaturalGas,                             !- Resource
  2011,                                   !- Escalation Start Year
  January,                                !- Escalation Start Month
  0.9823,                                 !- Year Escalation 1
  0.9557,                                 !- Year Escalation 2
  0.9279,                                 !- Year Escalation 3
  0.9257,                                 !- Year Escalation 4
  0.9346,                                 !- Year Escalation 5
  0.9412,                                 !- Year Escalation 6
  0.9512,                                 !- Year Escalation 7
  0.9645,                                 !- Year Escalation 8
  0.9856,                                 !- Year Escalation 9
  1.0067,                                 !- Year Escalation 10
  1.0222,                                 !- Year Escalation 11
  1.0410,                                 !- Year Escalation 12
  1.0610,                                 !- Year Escalation 13
  1.0787,                                 !- Year Escalation 14
  1.0942,                                 !- Year Escalation 15
  1.1098,                                 !- Year Escalation 16
  1.1220,                                 !- Year Escalation 17
  1.1308,                                 !- Year Escalation 18
  1.1386,                                 !- Year Escalation 19
  1.1486,                                 !- Year Escalation 20
  1.1619,                                 !- Year Escalation 21
  1.1763,                                 !- Year Escalation 22
  1.1918,                                 !- Year Escalation 23
  1.2118,                                 !- Year Escalation 24
  1.2284,                                 !- Year Escalation 25
  1.2439,                                 !- Year Escalation 26
  1.2605,                                 !- Year Escalation 27
  1.2772,                                 !- Year Escalation 28
  1.2938,                                 !- Year Escalation 29
  1.3115;                                 !- Year Escalation 30

LifeCycleCost:UsePriceEscalation,
  U.S. Avg  Commercial-Coal,              !- Name
  Coal,                                   !- Resource
  2011,                                   !- Escalation Start Year
  January,                                !- Escalation Start Month
  0.9970,                                 !- Year Escalation 1
  1.0089,                                 !- Year Escalation 2
  1.0089,                                 !- Year Escalation 3
  0.9941,                                 !- Year Escalation 4
  0.9941,                                 !- Year Escalation 5
  1.0000,                                 !- Year Escalation 6
  1.0030,                                 !- Year Escalation 7
  1.0059,                                 !- Year Escalation 8
  1.0089,                                 !- Year Escalation 9
  1.0119,                                 !- Year Escalation 10
  1.0148,                                 !- Year Escalation 11
  1.0178,                                 !- Year Escalation 12
  1.0208,                                 !- Year Escalation 13
  1.0267,                                 !- Year Escalation 14
  1.0297,                                 !- Year Escalation 15
  1.0356,                                 !- Year Escalation 16
  1.0415,                                 !- Year Escalation 17
  1.0534,                                 !- Year Escalation 18
  1.0564,                                 !- Year Escalation 19
  1.0593,                                 !- Year Escalation 20
  1.0653,                                 !- Year Escalation 21
  1.0712,                                 !- Year Escalation 22
  1.0742,                                 !- Year Escalation 23
  1.0801,                                 !- Year Escalation 24
  1.0831,                                 !- Year Escalation 25
  1.0831,                                 !- Year Escalation 26
  1.0861,                                 !- Year Escalation 27
  1.0890,                                 !- Year Escalation 28
  1.0920,                                 !- Year Escalation 29
  1.0950;                                 !- Year Escalation 30

Building,
  90.1-2019|MediumOffice,                 !- Name
  0,                                      !- North Axis {deg}
  City,                                   !- Terrain
  0.04,                                   !- Loads Convergence Tolerance Value {W}
  0.2,                                    !- Temperature Convergence Tolerance Value {deltaC}
  FullInteriorAndExterior,                !- Solar Distribution
  25,                                     !- Maximum Number of Warmup Days
  6;                                      !- Minimum Number of Warmup Days

Zone,
  Zone Office WholeBuilding - Md Office A  - Story Ground, !- Name
  -0,                                     !- Direction of Relative North {deg}
  -21.6523160749713,                      !- X Origin {m}
  -17.4828773833142,                      !- Y Origin {m}
  0,                                      !- Z Origin {m}
  ,                                       !- Type
  1,                                      !- Multiplier
  ,                                       !- Ceiling Height {m}
  ,                                       !- Volume {m3}
  ,                                       !- Floor Area {m2}
  ,                                       !- Zone Inside Convection Algorithm
  ,                                       !- Zone Outside Convection Algorithm
  Yes;                                    !- Part of Total Floor Area

Space,
  Office WholeBuilding - Md Office A  - Story Ground, !- Name
  Zone Office WholeBuilding - Md Office A  - Story Ground, !- Zone Name
  ,                                       !- Ceiling Height {m}
  ,                                       !- Volume {m3}
  ,                                       !- Floor Area {m2}
  Office WholeBuilding - Md Office - 90.1-2019; !- Space Type

SpaceList,
  Office WholeBuilding - Md Office - 90.1-2019, !- Name
  Office WholeBuilding - Md Office B end_a - Story Ground, !- Space Name 1
  Office WholeBuilding - Md Office C end_a - Story Ground, !- Space Name 2
  Office WholeBuilding - Md Office A  - Story Ground, !- Space Name 3
  Office WholeBuilding - Md Office B  - Story Ground, !- Space Name 4
  Office WholeBuilding - Md Office C end_b - Story Ground, !- Space Name 5
  Office WholeBuilding - Md Office C  - Story Ground, !- Space Name 6
  Office WholeBuilding - Md Office A end_a - Story Ground, !- Space Name 7
  Office WholeBuilding - Md Office A end_b - Story Ground, !- Space Name 8
  Office WholeBuilding - Md Office B end_b - Story Ground; !- Space Name 9

Lights,
  Office WholeBuilding - Md Office Lights, !- Name
  Office WholeBuilding - Md Office - 90.1-2019, !- Zone or ZoneList or Space or SpaceList Name
  OfficeMedium BLDG_LIGHT_SCH_2013,       !- Schedule Name
  Watts/Area,                             !- Design Level Calculation Method
  ,                                       !- Lighting Level {W}
  6.88890266669422,                       !- Watts per Zone Floor Area {W/m2}
  ,                                       !- Watts per Person {W/person}
  0,                                      !- Return Air Fraction
  0.7,                                    !- Fraction Radiant
  0.2,                                    !- Fraction Visible
  1,                                      !- Fraction Replaceable
  General;                                !- End-Use Subcategory

ScheduleTypeLimits,
  Fractional,                             !- Name
  0,                                      !- Lower Limit Value {BasedOnField A3}
  1,                                      !- Upper Limit Value {BasedOnField A3}
  Continuous;                             !- Numeric Type

Schedule:Day:Interval,
  OfficeMedium BLDG_LIGHT_SCH_2013 Sun Day, !- Name
  Fractional,                             !- Schedule Type Limits Name
  Average,                                !- Interpolate to Timestep
  06:00,                                  !- Time 1 {hh:mm}
  0.05,                                   !- Value Until Time 1
  18:00,                                  !- Time 2 {hh:mm}
  0.04311628,                             !- Value Until Time 2
  24:00,                                  !- Time 3 {hh:mm}
  0.05;                                   !- Value Until Time 3

Schedule:Day:Interval,
  Schedule Day 6,                         !- Name
  Fractional,                             !- Schedule Type Limits Name
  Average,                                !- Interpolate to Timestep
  00:10,                                  !- Time 1 {hh:mm}
  0.316186053333332,                      !- Value Until Time 1
  00:20,                                  !- Time 2 {hh:mm}
  0.287441866666666,                      !- Value Until Time 2
  00:30,                                  !- Time 3 {hh:mm}
  0.25869768,                             !- Value Until Time 3
  01:00,                                  !- Time 4 {hh:mm}
  0.25869768,                             !- Value Until Time 4
  01:10,                                  !- Time 5 {hh:mm}
  0.251511633333333,                      !- Value Until Time 5
  01:20,                                  !- Time 6 {hh:mm}
  0.244325586666667,                      !- Value Until Time 6
  01:30,                                  !- Time 7 {hh:mm}
  0.23713954,                             !- Value Until Time 7
  01:40,                                  !- Time 8 {hh:mm}
  0.229953493333333,                      !- Value Until Time 8
  01:50,                                  !- Time 9 {hh:mm}
  0.222767446666666,                      !- Value Until Time 9
  02:00,                                  !- Time 10 {hh:mm}
  0.2155814,                              !- Value Until Time 10
  02:10,                                  !- Time 11 {hh:mm}
  0.208395353333333,                      !- Value Until Time 11
  02:20,                                  !- Time 12 {hh:mm}
  0.201209306666666,                      !- Value Until Time 12
  02:30,                                  !- Time 13 {hh:mm}
  0.19402326,                             !- Value Until Time 13
  02:40,                                  !- Time 14 {hh:mm}
  0.186837213333333,                      !- Value Until Time 14
  02:50,                                  !- Time 15 {hh:mm}
  0.179651166666666,                      !- Value Until Time 15
  03:00,                                  !- Time 16 {hh:mm}
  0.17246512,                             !- Value Until Time 16
  03:30,                                  !- Time 17 {hh:mm}
  0.17246512,                             !- Value Until Time 17
  03:40,                                  !- Time 18 {hh:mm}
  0.158093026666667,                      !- Value Until Time 18
  03:50,                                  !- Time 19 {hh:mm}
  0.143720933333333,                      !- Value Until Time 19
  04:00,                                  !- Time 20 {hh:mm}
  0.12934884,                             !- Value Until Time 20
  04:10,                                  !- Time 21 {hh:mm}
  0.114976746666666,                      !- Value Until Time 21
  04:20,                                  !- Time 22 {hh:mm}
  0.100604653333333,                      !- Value Until Time 22
  04:30,                                  !- Time 23 {hh:mm}
  0.08623256,                             !- Value Until Time 23
  04:40,                                  !- Time 24 {hh:mm}
  0.0790465133333333,                     !- Value Until Time 24
  04:50,                                  !- Time 25 {hh:mm}
  0.0718604666666666,                     !- Value Until Time 25
  05:00,                                  !- Time 26 {hh:mm}
  0.0646744199999998,                     !- Value Until Time 26
  05:10,                                  !- Time 27 {hh:mm}
  0.0574883733333331,                     !- Value Until Time 27
  05:20,                                  !- Time 28 {hh:mm}
  0.0503023266666664,                     !- Value Until Time 28
  05:30,                                  !- Time 29 {hh:mm}
  0.04311628,                             !- Value Until Time 29
  05:40,                                  !- Time 30 {hh:mm}
  0.0442635666666667,                     !- Value Until Time 30
  05:50,                                  !- Time 31 {hh:mm}
  0.0454108533333334,                     !- Value Until Time 31
  06:00,                                  !- Time 32 {hh:mm}
  0.04655814,                             !- Value Until Time 32
  06:10,                                  !- Time 33 {hh:mm}
  0.0477054266666667,                     !- Value Until Time 33
  06:20,                                  !- Time 34 {hh:mm}
  0.0488527133333334,                     !- Value Until Time 34
  06:30,                                  !- Time 35 {hh:mm}
  0.05,                                   !- Value Until Time 35
  20:30,                                  !- Time 36 {hh:mm}
  0.05,                                   !- Value Until Time 36
  20:40,                                  !- Time 37 {hh:mm}
  0.0583333333333334,                     !- Value Until Time 37
  20:50,                                  !- Time 38 {hh:mm}
  0.0666666666666668,                     !- Value Until Time 38
  21:00,                                  !- Time 39 {hh:mm}
  0.0750000000000002,                     !- Value Until Time 39
  21:10,                                  !- Time 40 {hh:mm}
  0.0833333333333336,                     !- Value Until Time 40
  21:20,                                  !- Time 41 {hh:mm}
  0.091666666666667,                      !- Value Until Time 41
  21:30,                                  !- Time 42 {hh:mm}
  0.1,                                    !- Value Until Time 42
  21:40,                                  !- Time 43 {hh:mm}
  0.212682173333334,                      !- Value Until Time 43
  21:50,                                  !- Time 44 {hh:mm}
  0.325364346666668,                      !- Value Until Time 44
  22:00,                                  !- Time 45 {hh:mm}
  0.438046520000002,                      !- Value Until Time 45
  22:10,                                  !- Time 46 {hh:mm}
  0.550728693333336,                      !- Value Until Time 46
  22:20,                                  !- Time 47 {hh:mm}
  0.66341086666667,                       !- Value Until Time 47
  22:30,                                  !- Time 48 {hh:mm}
  0.77609304,                             !- Value Until Time 48
  22:40,                                  !- Time 49 {hh:mm}
  0.718604666666666,                      !- Value Until Time 49
  22:50,                                  !- Time 50 {hh:mm}
  0.661116293333333,                      !- Value Until Time 50
  23:00,                                  !- Time 51 {hh:mm}
  0.603627919999999,                      !- Value Until Time 51
  23:10,                                  !- Time 52 {hh:mm}
  0.546139546666665,                      !- Value Until Time 52
  23:20,                                  !- Time 53 {hh:mm}
  0.488651173333331,                      !- Value Until Time 53
  23:30,                                  !- Time 54 {hh:mm}
  0.4311628,                              !- Value Until Time 54
  23:40,                                  !- Time 55 {hh:mm}
  0.402418613333333,                      !- Value Until Time 55
  23:50,                                  !- Time 56 {hh:mm}
  0.373674426666666,                      !- Value Until Time 56
  24:00,                                  !- Time 57 {hh:mm}
  0.344930239999999;                      !- Value Until Time 57

Schedule:Day:Interval,
  OfficeMedium BLDG_LIGHT_SCH_2013 Sat Day, !- Name
  Fractional,                             !- Schedule Type Limits Name
  Average,                                !- Interpolate to Timestep
  05:00,                                  !- Time 1 {hh:mm}
  0.05,                                   !- Value Until Time 1
  05:10,                                  !- Time 2 {hh:mm}
  0.05301938,                             !- Value Until Time 2
  05:20,                                  !- Time 3 {hh:mm}
  0.05603876,                             !- Value Until Time 3
  05:30,                                  !- Time 4 {hh:mm}
  0.05905814,                             !- Value Until Time 4
  05:40,                                  !- Time 5 {hh:mm}
  0.06207752,                             !- Value Until Time 5
  05:50,                                  !- Time 6 {hh:mm}
  0.0650969,                              !- Value Until Time 6
  06:00,                                  !- Time 7 {hh:mm}
  0.06811628,                             !- Value Until Time 7
  06:10,                                  !- Time 8 {hh:mm}
  0.07113566,                             !- Value Until Time 8
  06:20,                                  !- Time 9 {hh:mm}
  0.07415504,                             !- Value Until Time 9
  06:30,                                  !- Time 10 {hh:mm}
  0.07717442,                             !- Value Until Time 10
  06:40,                                  !- Time 11 {hh:mm}
  0.0801938000000001,                     !- Value Until Time 11
  06:50,                                  !- Time 12 {hh:mm}
  0.0832131800000001,                     !- Value Until Time 12
  07:00,                                  !- Time 13 {hh:mm}
  0.08623256,                             !- Value Until Time 13
  07:10,                                  !- Time 14 {hh:mm}
  0.100604653333333,                      !- Value Until Time 14
  07:20,                                  !- Time 15 {hh:mm}
  0.114976746666667,                      !- Value Until Time 15
  07:30,                                  !- Time 16 {hh:mm}
  0.12934884,                             !- Value Until Time 16
  07:40,                                  !- Time 17 {hh:mm}
  0.143720933333333,                      !- Value Until Time 17
  07:50,                                  !- Time 18 {hh:mm}
  0.158093026666667,                      !- Value Until Time 18
  08:00,                                  !- Time 19 {hh:mm}
  0.17246512,                             !- Value Until Time 19
  08:10,                                  !- Time 20 {hh:mm}
  0.186837213333333,                      !- Value Until Time 20
  08:20,                                  !- Time 21 {hh:mm}
  0.201209306666667,                      !- Value Until Time 21
  08:30,                                  !- Time 22 {hh:mm}
  0.2155814,                              !- Value Until Time 22
  08:39,                                  !- Time 23 {hh:mm}
  0.229953493333333,                      !- Value Until Time 23
  08:49,                                  !- Time 24 {hh:mm}
  0.244325586666667,                      !- Value Until Time 24
  08:59,                                  !- Time 25 {hh:mm}
  0.25869768,                             !- Value Until Time 25
  09:00,                                  !- Time 26 {hh:mm}
  0.25869768,                             !- Value Until Time 26
  10:00,                                  !- Time 27 {hh:mm}
  0.25869768,                             !- Value Until Time 27
  10:09,                                  !- Time 28 {hh:mm}
  0.253308145,                            !- Value Until Time 28
  10:19,                                  !- Time 29 {hh:mm}
  0.24791861,                             !- Value Until Time 29
  10:29,                                  !- Time 30 {hh:mm}
  0.242529075,                            !- Value Until Time 30
  10:39,                                  !- Time 31 {hh:mm}
  0.23713954,                             !- Value Until Time 31
  10:49,                                  !- Time 32 {hh:mm}
  0.231750005,                            !- Value Until Time 32
  10:59,                                  !- Time 33 {hh:mm}
  0.22636047,                             !- Value Until Time 33
  11:09,                                  !- Time 34 {hh:mm}
  0.220970935,                            !- Value Until Time 34
  11:19,                                  !- Time 35 {hh:mm}
  0.2155814,                              !- Value Until Time 35
  11:29,                                  !- Time 36 {hh:mm}
  0.210191865,                            !- Value Until Time 36
  11:39,                                  !- Time 37 {hh:mm}
  0.20480233,                             !- Value Until Time 37
  11:49,                                  !- Time 38 {hh:mm}
  0.199412795,                            !- Value Until Time 38
  11:59,                                  !- Time 39 {hh:mm}
  0.19402326,                             !- Value Until Time 39
  12:09,                                  !- Time 40 {hh:mm}
  0.188633725,                            !- Value Until Time 40
  12:19,                                  !- Time 41 {hh:mm}
  0.18324419,                             !- Value Until Time 41
  12:29,                                  !- Time 42 {hh:mm}
  0.177854655,                            !- Value Until Time 42
  12:39,                                  !- Time 43 {hh:mm}
  0.17246512,                             !- Value Until Time 43
  12:49,                                  !- Time 44 {hh:mm}
  0.167075585,                            !- Value Until Time 44
  12:59,                                  !- Time 45 {hh:mm}
  0.16168605,                             !- Value Until Time 45
  13:09,                                  !- Time 46 {hh:mm}
  0.156296515,                            !- Value Until Time 46
  13:19,                                  !- Time 47 {hh:mm}
  0.15090698,                             !- Value Until Time 47
  13:29,                                  !- Time 48 {hh:mm}
  0.145517445,                            !- Value Until Time 48
  13:39,                                  !- Time 49 {hh:mm}
  0.14012791,                             !- Value Until Time 49
  13:49,                                  !- Time 50 {hh:mm}