
Version,
  22.2;                                   !- Version Identifier

Timestep,
  6;                                      !- Number of Timesteps per Hour

LifeCycleCost:Parameters,
  Life Cycle Cost Parameters,             !- Name
  EndOfYear,                              !- Discounting Convention
  ConstantDollar,                         !- Inflation Approach
  0.03,                                   !- Real Discount Rate
  ,                                       !- Nominal Discount Rate
  ,                                       !- Inflation
  ,                                       !- Base Date Month
  2011,                                   !- Base Date Year
  ,                                       !- Service Date Month
  2011,                                   !- Service Date Year
  25,                                     !- Length of Study Period in Years
  ,                                       !- Tax rate
  None;                                   !- Depreciation Method

LifeCycleCost:UsePriceEscalation,
  U.S. Avg  Commercial-Electricity,       !- Name
  Electricity,                            !- Resource
  2011,                                   !- Escalation Start Year
  January,                                !- Escalation Start Month
  0.9838,                                 !- Year Escalation 1
  0.9730,                                 !- Year Escalation 2
  0.9632,                                 !- Year Escalation 3
  0.9611,                                 !- Year Escalation 4
  0.9571,                                 !- Year Escalation 5
  0.9553,                                 !- Year Escalation 6
  0.9539,                                 !- Year Escalation 7
  0.9521,                                 !- Year Escalation 8
  0.9546,                                 !- Year Escalation 9
  0.9550,                                 !- Year Escalation 10
  0.9553,                                 !- Year Escalation 11
  0.9564,                                 !- Year Escalation 12
  0.9575,                                 !- Year Escalation 13
  0.9596,                                 !- Year Escalation 14
  0.9618,                                 !- Year Escalation 15
  0.9614,                                 !- Year Escalation 16
  0.9618,                                 !- Year Escalation 17
  0.9618,                                 !- Year Escalation 18
  0.9593,                                 !- Year Escalation 19
  0.9589,                                 !- Year Escalation 20
  0.9607,                                 !- Year Escalation 21
  0.9625,                                 !- Year Escalation 22
  0.9650,                                 !- Year Escalation 23
  0.9708,                                 !- Year Escalation 24
  0.9751,                                 !- Year Escalation 25
  0.9762,                                 !- Year Escalation 26
  0.9766,                                 !- Year Escalation 27
  0.9766,                                 !- Year Escalation 28
  0.9769,                                 !- Year Escalation 29
  0.9773;                                 !- Year Escalation 30

LifeCycleCost:UsePriceEscalation,
  U.S. Avg  Commercial-Distillate Oil,    !- Name
  FuelOilNo1,                             !- Resource
  2011,                                   !- Escalation Start Year
  January,                                !- Escalation Start Month
  0.9714,                                 !- Year Escalation 1
  0.9730,                                 !- Year Escalation 2
  0.9942,                                 !- Year Escalation 3
  1.0164,                                 !- Year Escalation 4
  1.0541,                                 !- Year Escalation 5
  1.0928,                                 !- Year Escalation 6
  1.1267,                                 !- Year Escalation 7
  1.1580,                                 !- Year Escalation 8
  1.1792,                                 !- Year Escalation 9
  1.1967,                                 !- Year Escalation 10
  1.2200,                                 !- Year Escalation 11
  1.2333,                                 !- Year Escalation 12
  1.2566,                                 !- Year Escalation 13
  1.2709,                                 !- Year Escalation 14
  1.2826,                                 !- Year Escalation 15
  1.2985,                                 !- Year Escalation 16
  1.3102,                                 !- Year Escalation 17
  1.3250,                                 !- Year Escalation 18
  1.3261,                                 !- Year Escalation 19
  1.3282,                                 !- Year Escalation 20
  1.3324,                                 !- Year Escalation 21
  1.3356,                                 !- Year Escalation 22
  1.3431,                                 !- Year Escalation 23
  1.3510,                                 !- Year Escalation 24
  1.3568,                                 !- Year Escalation 25
  1.3606,                                 !- Year Escalation 26
  1.3637,                                 !- Year Escalation 27
  1.3674,                                 !- Year Escalation 28
  1.3706,                                 !- Year Escalation 29
  1.3743;                                 !- Year Escalation 30

LifeCycleCost:UsePriceEscalation,
  U.S. Avg  Commercial-Residual Oil,      !- Name
  FuelOilNo2,                             !- Resource
  2011,                                   !- Escalation Start Year
  January,                                !- Escalation Start Month
  0.8469,                                 !- Year Escalation 1
  0.8257,                                 !- Year Escalation 2
  0.8681,                                 !- Year Escalation 3
  0.8988,                                 !- Year Escalation 4
  0.9289,                                 !- Year Escalation 5
  0.9604,                                 !- Year Escalation 6
  0.9897,                                 !- Year Escalation 7
  1.0075,                                 !- Year Escalation 8
  1.0314,                                 !- Year Escalation 9
  1.0554,                                 !- Year Escalation 10
  1.0861,                                 !- Year Escalation 11
  1.1278,                                 !- Year Escalation 12
  1.1497,                                 !- Year Escalation 13
  1.1620,                                 !- Year Escalation 14
  1.1743,                                 !- Year Escalation 15
  1.1852,                                 !- Year Escalation 16
  1.1948,                                 !- Year Escalation 17
  1.2037,                                 !- Year Escalation 18
  1.2071,                                 !- Year Escalation 19
  1.2119,                                 !- Year Escalation 20
  1.2139,                                 !- Year Escalation 21
  1.2194,                                 !- Year Escalation 22
  1.2276,                                 !- Year Escalation 23
  1.2365,                                 !- Year Escalation 24
  1.2420,                                 !- Year Escalation 25
  1.2461,                                 !- Year Escalation 26
  1.2509,                                 !- Year Escalation 27
  1.2550,                                 !- Year Escalation 28
  1.2591,                                 !- Year Escalation 29
  1.2638;                                 !- Year Escalation 30

LifeCycleCost:UsePriceEscalation,
  U.S. Avg  Commercial-Natural gas,       !- Name
  NaturalGas,                             !- Resource
  2011,                                   !- Escalation Start Year
  January,                                !- Escalation Start Month
  0.9823,                                 !- Year Escalation 1
  0.9557,                                 !- Year Escalation 2
  0.9279,                                 !- Year Escalation 3
  0.9257,                                 !- Year Escalation 4
  0.9346,                                 !- Year Escalation 5
  0.9412,                                 !- Year Escalation 6
  0.9512,                                 !- Year Escalation 7
  0.9645,                                 !- Year Escalation 8
  0.9856,                                 !- Year Escalation 9
  1.0067,                                 !- Year Escalation 10
  1.0222,                                 !- Year Escalation 11
  1.0410,                                 !- Year Escalation 12
  1.0610,                                 !- Year Escalation 13
  1.0787,                                 !- Year Escalation 14
  1.0942,                                 !- Year Escalation 15
  1.1098,                                 !- Year Escalation 16
  1.1220,                                 !- Year Escalation 17
  1.1308,                                 !- Year Escalation 18
  1.1386,                                 !- Year Escalation 19
  1.1486,                                 !- Year Escalation 20
  1.1619,                                 !- Year Escalation 21
  1.1763,                                 !- Year Escalation 22
  1.1918,                                 !- Year Escalation 23
  1.2118,                                 !- Year Escalation 24
  1.2284,                                 !- Year Escalation 25
  1.2439,                                 !- Year Escalation 26
  1.2605,                                 !- Year Escalation 27
  1.2772,                                 !- Year Escalation 28
  1.2938,                                 !- Year Escalation 29
  1.3115;                                 !- Year Escalation 30

LifeCycleCost:UsePriceEscalation,
  U.S. Avg  Commercial-Coal,              !- Name
  Coal,                                   !- Resource
  2011,                                   !- Escalation Start Year
  January,                                !- Escalation Start Month
  0.9970,                                 !- Year Escalation 1
  1.0089,                                 !- Year Escalation 2
  1.0089,                                 !- Year Escalation 3
  0.9941,                                 !- Year Escalation 4
  0.9941,                                 !- Year Escalation 5
  1.0000,                                 !- Year Escalation 6
  1.0030,                                 !- Year Escalation 7
  1.0059,                                 !- Year Escalation 8
  1.0089,                                 !- Year Escalation 9
  1.0119,                                 !- Year Escalation 10
  1.0148,                                 !- Year Escalation 11
  1.0178,                                 !- Year Escalation 12
  1.0208,                                 !- Year Escalation 13
  1.0267,                                 !- Year Escalation 14
  1.0297,                                 !- Year Escalation 15
  1.0356,                                 !- Year Escalation 16
  1.0415,                                 !- Year Escalation 17
  1.0534,                                 !- Year Escalation 18
  1.0564,                                 !- Year Escalation 19
  1.0593,                                 !- Year Escalation 20
  1.0653,                                 !- Year Escalation 21
  1.0712,                                 !- Year Escalation 22
  1.0742,                                 !- Year Escalation 23
  1.0801,                                 !- Year Escalation 24
  1.0831,                                 !- Year Escalation 25
  1.0831,                                 !- Year Escalation 26
  1.0861,                                 !- Year Escalation 27
  1.0890,                                 !- Year Escalation 28
  1.0920,                                 !- Year Escalation 29
  1.0950;                                 !- Year Escalation 30

Building,
  90.1-2010|Warehouse,                    !- Name
  0,                                      !- North Axis {deg}
  Urban,                                  !- Terrain
  0.04,                                   !- Loads Convergence Tolerance Value {W}
  0.2,                                    !- Temperature Convergence Tolerance Value {deltaC}
  FullInteriorAndExterior,                !- Solar Distribution
  25,                                     !- Maximum Number of Warmup Days
  6;                                      !- Minimum Number of Warmup Days

Zone,
  Zone Warehouse Bulk  - Story Ground,    !- Name
  -0,                                     !- Direction of Relative North {deg}
  -6.70906274229121,                      !- X Origin {m}
  -4.4727084948608,                       !- Y Origin {m}
  0,                                      !- Z Origin {m}
  ,                                       !- Type
  1,                                      !- Multiplier
  ,                                       !- Ceiling Height {m}
  ,                                       !- Volume {m3}
  ,                                       !- Floor Area {m2}
  ,                                       !- Zone Inside Convection Algorithm
  ,                                       !- Zone Outside Convection Algorithm
  Yes;                                    !- Part of Total Floor Area

Space,
  Warehouse Bulk  - Story Ground,         !- Name
  Zone Warehouse Bulk  - Story Ground,    !- Zone Name
  ,                                       !- Ceiling Height {m}
  ,                                       !- Volume {m3}
  ,                                       !- Floor Area {m2}
  Warehouse Bulk - 90.1-2010;             !- Space Type

SpaceList,
  Warehouse Bulk - 90.1-2010,             !- Name
  Warehouse Bulk  - Story Ground;         !- Space Name 1

Lights,
  Warehouse Bulk Lights,                  !- Name
  Warehouse Bulk - 90.1-2010,             !- Zone or ZoneList or Space or SpaceList Name
  Warehouse BLDG_LIGHT_STORAGE_SCH,       !- Schedule Name
  Watts/Area,                             !- Design Level Calculation Method
  ,                                       !- Lighting Level {W}
  6.24306804169164,                       !- Watts per Zone Floor Area {W/m2}
  ,                                       !- Watts per Person {W/person}
  0,                                      !- Return Air Fraction
  0.42,                                   !- Fraction Radiant
  0.18,                                   !- Fraction Visible
  1,                                      !- Fraction Replaceable
  General;                                !- End-Use Subcategory

ScheduleTypeLimits,
  Fractional,                             !- Name
  0,                                      !- Lower Limit Value {BasedOnField A3}
  1,                                      !- Upper Limit Value {BasedOnField A3}
  Continuous;                             !- Numeric Type

Schedule:Day:Interval,
  Warehouse BLDG_LIGHT_STORAGE_SCH Sat|Wkdy Day, !- Name
  Fractional,                             !- Schedule Type Limits Name
  No,                                     !- Interpolate to Timestep
  07:00,                                  !- Time 1 {hh:mm}
  0.1,                                    !- Value Until Time 1
  08:00,                                  !- Time 2 {hh:mm}
  0.6,                                    !- Value Until Time 2
  09:00,                                  !- Time 3 {hh:mm}
  0.75,                                   !- Value Until Time 3
  16:00,                                  !- Time 4 {hh:mm}
  0.85,                                   !- Value Until Time 4
  17:00,                                  !- Time 5 {hh:mm}
  0.75,                                   !- Value Until Time 5
  18:00,                                  !- Time 6 {hh:mm}
  0.6,                                    !- Value Until Time 6
  24:00,                                  !- Time 7 {hh:mm}
  0.1;                                    !- Value Until Time 7

Schedule:Day:Interval,
  Warehouse BLDG_LIGHT_STORAGE_SCH Default, !- Name
  Fractional,                             !- Schedule Type Limits Name
  No,                                     !- Interpolate to Timestep
  24:00,                                  !- Time 1 {hh:mm}
  0.1;                                    !- Value Until Time 1

Schedule:Week:Daily,
  Warehouse BLDG_LIGHT_STORAGE_SCH Week Rule - Jan1-Jan4, !- Name
  Warehouse BLDG_LIGHT_STORAGE_SCH Sat|Wkdy Day, !- Sunday Schedule:Day Name
  Warehouse BLDG_LIGHT_STORAGE_SCH Sat|Wkdy Day, !- Monday Schedule:Day Name
  Warehouse BLDG_LIGHT_STORAGE_SCH Sat|Wkdy Day, !- Tuesday Schedule:Day Name
  Warehouse BLDG_LIGHT_STORAGE_SCH Sat|Wkdy Day, !- Wednesday Schedule:Day Name
  Warehouse BLDG_LIGHT_STORAGE_SCH Sat|Wkdy Day, !- Thursday Schedule:Day Name
  Warehouse BLDG_LIGHT_STORAGE_SCH Sat|Wkdy Day, !- Friday Schedule:Day Name
  Warehouse BLDG_LIGHT_STORAGE_SCH Sat|Wkdy Day, !- Saturday Schedule:Day Name
  Warehouse BLDG_LIGHT_STORAGE_SCH Default, !- Holiday Schedule:Day Name
  Warehouse BLDG_LIGHT_STORAGE_SCH Summer Design Day, !- SummerDesignDay Schedule:Day Name
  Warehouse BLDG_LIGHT_STORAGE_SCH Winter Design Day, !- WinterDesignDay Schedule:Day Name
  Warehouse BLDG_LIGHT_STORAGE_SCH Default, !- CustomDay1 Schedule:Day Name
  Warehouse BLDG_LIGHT_STORAGE_SCH Default; !- CustomDay2 Schedule:Day Name

Schedule:Week:Daily,
  Warehouse BLDG_LIGHT_STORAGE_SCH Week Rule - Jan5-Dec31, !- Name
  Warehouse BLDG_LIGHT_STORAGE_SCH Default, !- Sunday Schedule:Day Name
  Warehouse BLDG_LIGHT_STORAGE_SCH Sat|Wkdy Day, !- Monday Schedule:Day Name
  Warehouse BLDG_LIGHT_STORAGE_SCH Sat|Wkdy Day, !- Tuesday Schedule:Day Name
  Warehouse BLDG_LIGHT_STORAGE_SCH Sat|Wkdy Day, !- Wednesday Schedule:Day Name
  Warehouse BLDG_LIGHT_STORAGE_SCH Sat|Wkdy Day, !- Thursday Schedule:Day Name
  Warehouse BLDG_LIGHT_STORAGE_SCH Sat|Wkdy Day, !- Friday Schedule:Day Name
  Warehouse BLDG_LIGHT_STORAGE_SCH Sat|Wkdy Day, !- Saturday Schedule:Day Name
  Warehouse BLDG_LIGHT_STORAGE_SCH Default, !- Holiday Schedule:Day Name
  Warehouse BLDG_LIGHT_STORAGE_SCH Summer Design Day, !- SummerDesignDay Schedule:Day Name
  Warehouse BLDG_LIGHT_STORAGE_SCH Winter Design Day, !- WinterDesignDay Schedule:Day Name
  Warehouse BLDG_LIGHT_STORAGE_SCH Default, !- CustomDay1 Schedule:Day Name
  Warehouse BLDG_LIGHT_STORAGE_SCH Default; !- CustomDay2 Schedule:Day Name

Schedule:Year,
  Warehouse BLDG_LIGHT_STORAGE_SCH,       !- Name
  Fractional,                             !- Schedule Type Limits Name
  Warehouse BLDG_LIGHT_STORAGE_SCH Week Rule - Jan1-Jan4, !- Schedule:Week Name 1
  1,                                      !- Start Month 1
  1,                                      !- Start Day 1
  1,                                      !- End Month 1
  4,                                      !- End Day 1
  Warehouse BLDG_LIGHT_STORAGE_SCH Week Rule - Jan5-Dec31, !- Schedule:Week Name 2
  1,                                      !- Start Month 2
  5,                                      !- Start Day 2
  12,                                     !- End Month 2
  31;                                     !- End Day 2

Schedule:Day:Interval,
  Warehouse BLDG_LIGHT_STORAGE_SCH Summer Design Day, !- Name
  Fractional,                             !- Schedule Type Limits Name
  No,                                     !- Interpolate to Timestep
  24:00,                                  !- Time 1 {hh:mm}
  1;                                      !- Value Until Time 1

Schedule:Day:Interval,
  Warehouse BLDG_LIGHT_STORAGE_SCH Winter Design Day, !- Name
  Fractional,                             !- Schedule Type Limits Name
  No,                                     !- Interpolate to Timestep
  24:00,                                  !- Time 1 {hh:mm}
  0;                                      !- Value Until Time 1

ElectricEquipment,
  Warehouse Bulk Elec Equip,              !- Name
  Warehouse Bulk - 90.1-2010,             !- Zone or ZoneList or Space or SpaceList Name
  Warehouse Bldg Equip,                   !- Schedule Name
  Watts/Area,                             !- Design Level Calculation Method
  ,                                       !- Design Level {W}
  2.55841615086008,                       !- Watts per Zone Floor Area {W/m2}
  ,                                       !- Watts per Person {W/person}
  0,                                      !- Fraction Latent
  0,                                      !- Fraction Radiant
  0,                                      !- Fraction Lost
  General;                                !- End-Use Subcategory

Schedule:Day:Interval,
  Warehouse Bldg Equip Mon|Tue|Wed|Thu|Fri|Sat Day, !- Name
  Fractional,                             !- Schedule Type Limits Name
  No,                                     !- Interpolate to Timestep
  08:00,                                  !- Time 1 {hh:mm}
  0.25,                                   !- Value Until Time 1
  12:00,                                  !- Time 2 {hh:mm}
  1,                                      !- Value Until Time 2
  13:00,                                  !- Time 3 {hh:mm}
  0.25,                                   !- Value Until Time 3
  17:00,                                  !- Time 4 {hh:mm}
  1,                                      !- Value Until Time 4
  24:00,                                  !- Time 5 {hh:mm}
  0.25;                                   !- Value Until Time 5

Schedule:Day:Interval,
  Warehouse Bldg Equip Sun|Hol Day,       !- Name
  Fractional,                             !- Schedule Type Limits Name
  No,                                     !- Interpolate to Timestep
  24:00,                                  !- Time 1 {hh:mm}
  0;                                      !- Value Until Time 1

Schedule:Week:Daily,
  Warehouse Bldg Equip Week Rule - Jan1-Jan4, !- Name
  Warehouse Bldg Equip Mon|Tue|Wed|Thu|Fri|Sat Day, !- Sunday Schedule:Day Name
  Warehouse Bldg Equip Mon|Tue|Wed|Thu|Fri|Sat Day, !- Monday Schedule:Day Name
  Warehouse Bldg Equip Mon|Tue|Wed|Thu|Fri|Sat Day, !- Tuesday Schedule:Day Name
  Warehouse Bldg Equip Mon|Tue|Wed|Thu|Fri|Sat Day, !- Wednesday Schedule:Day Name
  Warehouse Bldg Equip Mon|Tue|Wed|Thu|Fri|Sat Day, !- Thursday Schedule:Day Name
  Warehouse Bldg Equip Mon|Tue|Wed|Thu|Fri|Sat Day, !- Friday Schedule:Day Name
  Warehouse Bldg Equip Mon|Tue|Wed|Thu|Fri|Sat Day, !- Saturday Schedule:Day Name
  Warehouse Bldg Equip Default,           !- Holiday Schedule:Day Name
  Warehouse Bldg Equip Summer Design Day, !- SummerDesignDay Schedule:Day Name
  Warehouse Bldg Equip Winter Design Day, !- WinterDesignDay Schedule:Day Name
  Warehouse Bldg Equip Default,           !- CustomDay1 Schedule:Day Name
  Warehouse Bldg Equip Default;           !- CustomDay2 Schedule:Day Name

Schedule:Week:Daily,
  Warehouse Bldg Equip Week Rule - Jan5-Dec31, !- Name
  Warehouse Bldg Equip Sun|Hol Day,       !- Sunday Schedule:Day Name
  Warehouse Bldg Equip Mon|Tue|Wed|Thu|Fri|Sat Day, !- Monday Schedule:Day Name
  Warehouse Bldg Equip Mon|Tue|Wed|Thu|Fri|Sat Day, !- Tuesday Schedule:Day Name
  Warehouse Bldg Equip Mon|Tue|Wed|Thu|Fri|Sat Day, !- Wednesday Schedule:Day Name
  Warehouse Bldg Equip Mon|Tue|Wed|Thu|Fri|Sat Day, !- Thursday Schedule:Day Name
  Warehouse Bldg Equip Mon|Tue|Wed|Thu|Fri|Sat Day, !- Friday Schedule:Day Name
  Warehouse Bldg Equip Mon|Tue|Wed|Thu|Fri|Sat Day, !- Saturday Schedule:Day Name
  Warehouse Bldg Equip Default,           !- Holiday Schedule:Day Name
  Warehouse Bldg Equip Summer Design Day, !- SummerDesignDay Schedule:Day Name
  Warehouse Bldg Equip Winter Design Day, !- WinterDesignDay Schedule:Day Name
  Warehouse Bldg Equip Default,           !- CustomDay1 Schedule:Day Name
  Warehouse Bldg Equip Default;           !- CustomDay2 Schedule:Day Name

Schedule:Year,
  Warehouse Bldg Equip,                   !- Name
  Fractional,                             !- Schedule Type Limits Name
  Warehouse Bldg Equip Week Rule - Jan1-Jan4, !- Schedule:Week Name 1
  1,                                      !- Start Month 1
  1,                                      !- Start Day 1
  1,                                      !- End Month 1
  4,                                      !- End Day 1
  Warehouse Bldg Equip Week Rule - Jan5-Dec31, !- Schedule:Week Name 2
  1,                                      !- Start Month 2
  5,                                      !- Start Day 2
  12,                                     !- End Month 2
  31;                                     !- End Day 2

Schedule:Day:Interval,
  Warehouse Bldg Equip Default,           !- Name
  Fractional,                             !- Schedule Type Limits Name
  No,                                     !- Interpolate to Timestep
  24:00,                                  !- Time 1 {hh:mm}
  0;                                      !- Value Until Time 1

Schedule:Day:Interval,
  Warehouse Bldg Equip Summer Design Day, !- Name
  Fractional,                             !- Schedule Type Limits Name
  No,                                     !- Interpolate to Timestep
  08:00,                                  !- Time 1 {hh:mm}
  0.25,                                   !- Value Until Time 1
  12:00,                                  !- Time 2 {hh:mm}
  1,                                      !- Value Until Time 2
  13:00,                                  !- Time 3 {hh:mm}
  0.25,                                   !- Value Until Time 3
  17:00,                                  !- Time 4 {hh:mm}
  1,                                      !- Value Until Time 4
  24:00,                                  !- Time 5 {hh:mm}
  0.25;                                   !- Value Until Time 5

Schedule:Day:Interval,
  Warehouse Bldg Equip Winter Design Day, !- Name
  Fractional,                             !- Schedule Type Limits Name
  No,                                     !- Interpolate to Timestep
  08:00,                                  !- Time 1 {hh:mm}
  0.25,                                   !- Value Until Time 1
  12:00,                                  !- Time 2 {hh:mm}
  1,                                      !- Value Until Time 2
  13:00,                                  !- Time 3 {hh:mm}
  0.25,                                   !- Value Until Time 3
  17:00,                                  !- Time 4 {hh:mm}
  1,                                      !- Value Until Time 4
  24:00,                                  !- Time 5 {hh:mm}
  0.25;                                   !- Value Until Time 5

BuildingSurface:Detailed,
  Surface 1,                              !- Name
  Floor,                                  !- Surface Type
  Foundation F 126 Perim 2673 Area 7956,  !- Construction Name
  Zone Warehouse Bulk  - Story Ground,    !- Zone Name
  Warehouse Bulk  - Story Ground,         !- Space Name
  GroundFCfactorMethod,                   !- Outside Boundary Condition
  ,                                       !- Outside Boundary Condition Object
  NoSun,                                  !- Sun Exposure
  NoWind,                                 !- Wind Exposure
  ,                                       !- View Factor to Ground
  ,                                       !- Number of Vertices
  -2.66453525910038e-15, 3.5527136788005e-15, 0, !- X,Y,Z Vertex 1 {m}
  -2.66453525910038e-15, 8.9454169897216, 0, !- X,Y,Z Vertex 2 {m}
  8.89353357118123, 8.9454169897216, 0,   !- X,Y,Z Vertex 3 {m}
  8.89353357118123, 3.5527136788005e-15, 0; !- X,Y,Z Vertex 4 {m}

BuildingSurface:Detailed,
  Surface 2,                              !- Name
  Wall,                                   !- Surface Type
  Typical Insulated Exterior Mass Wall R-14.08, !- Construction Name
  Zone Warehouse Bulk  - Story Ground,    !- Zone Name
  Warehouse Bulk  - Story Ground,         !- Space Name
  Outdoors,                               !- Outside Boundary Condition
  ,                                       !- Outside Boundary Condition Object
  SunExposed,                             !- Sun Exposure
  WindExposed,                            !- Wind Exposure
  ,                                       !- View Factor to Ground
  ,                                       !- Number of Vertices
  -2.66453525910038e-15, 8.9454169897216, 3.6576, !- X,Y,Z Vertex 1 {m}
  -2.66453525910038e-15, 8.9454169897216, 0, !- X,Y,Z Vertex 2 {m}
  -2.66453525910038e-15, 3.5527136788005e-15, 0, !- X,Y,Z Vertex 3 {m}
  -2.66453525910038e-15, 3.5527136788005e-15, 3.6576; !- X,Y,Z Vertex 4 {m}

BuildingSurface:Detailed,
  Surface 3,                              !- Name
  Wall,                                   !- Surface Type
  Typical Insulated Exterior Mass Wall R-14.08, !- Construction Name
  Zone Warehouse Bulk  - Story Ground,    !- Zone Name
  Warehouse Bulk  - Story Ground,         !- Space Name
  Outdoors,                               !- Outside Boundary Condition
  ,                                       !- Outside Boundary Condition Object
  SunExposed,                             !- Sun Exposure
  WindExposed,                            !- Wind Exposure
  ,                                       !- View Factor to Ground
  ,                                       !- Number of Vertices
  8.89353357118123, 8.9454169897216, 3.6576, !- X,Y,Z Vertex 1 {m}
  8.89353357118123, 8.9454169897216, 0,   !- X,Y,Z Vertex 2 {m}
  -2.66453525910038e-15, 8.9454169897216, 0, !- X,Y,Z Vertex 3 {m}
  -2.66453525910038e-15, 8.9454169897216, 3.6576; !- X,Y,Z Vertex 4 {m}

BuildingSurface:Detailed,
  Surface 4,                              !- Name
  Wall,                                   !- Surface Type
  Typical Interior Wall,                  !- Construction Name
  Zone Warehouse Bulk  - Story Ground,    !- Zone Name
  Warehouse Bulk  - Story Ground,         !- Space Name
  Surface,                                !- Outside Boundary Condition
  Surface 8,                              !- Outside Boundary Condition Object