
Version,
  22.2;                                   !- Version Identifier

Timestep,
  1;                                      !- Number of Timesteps per Hour

LifeCycleCost:Parameters,
  Life Cycle Cost Parameters,             !- Name
  EndOfYear,                              !- Discounting Convention
  ConstantDollar,                         !- Inflation Approach
  0.03,                                   !- Real Discount Rate
  ,                                       !- Nominal Discount Rate
  ,                                       !- Inflation
  ,                                       !- Base Date Month
  2011,                                   !- Base Date Year
  ,                                       !- Service Date Month
  2011,                                   !- Service Date Year
  25,                                     !- Length of Study Period in Years
  ,                                       !- Tax rate
  None;                                   !- Depreciation Method

LifeCycleCost:UsePriceEscalation,
  U.S. Avg  Commercial-Electricity,       !- Name
  Electricity,                            !- Resource
  2011,                                   !- Escalation Start Year
  January,                                !- Escalation Start Month
  0.9838,                                 !- Year Escalation 1
  0.9730,                                 !- Year Escalation 2
  0.9632,                                 !- Year Escalation 3
  0.9611,                                 !- Year Escalation 4
  0.9571,                                 !- Year Escalation 5
  0.9553,                                 !- Year Escalation 6
  0.9539,                                 !- Year Escalation 7
  0.9521,                                 !- Year Escalation 8
  0.9546,                                 !- Year Escalation 9
  0.9550,                                 !- Year Escalation 10
  0.9553,                                 !- Year Escalation 11
  0.9564,                                 !- Year Escalation 12
  0.9575,                                 !- Year Escalation 13
  0.9596,                                 !- Year Escalation 14
  0.9618,                                 !- Year Escalation 15
  0.9614,                                 !- Year Escalation 16
  0.9618,                                 !- Year Escalation 17
  0.9618,                                 !- Year Escalation 18
  0.9593,                                 !- Year Escalation 19
  0.9589,                                 !- Year Escalation 20
  0.9607,                                 !- Year Escalation 21
  0.9625,                                 !- Year Escalation 22
  0.9650,                                 !- Year Escalation 23
  0.9708,                                 !- Year Escalation 24
  0.9751,                                 !- Year Escalation 25
  0.9762,                                 !- Year Escalation 26
  0.9766,                                 !- Year Escalation 27
  0.9766,                                 !- Year Escalation 28
  0.9769,                                 !- Year Escalation 29
  0.9773;                                 !- Year Escalation 30

LifeCycleCost:UsePriceEscalation,
  U.S. Avg  Commercial-Distillate Oil,    !- Name
  FuelOilNo1,                             !- Resource
  2011,                                   !- Escalation Start Year
  January,                                !- Escalation Start Month
  0.9714,                                 !- Year Escalation 1
  0.9730,                                 !- Year Escalation 2
  0.9942,                                 !- Year Escalation 3
  1.0164,                                 !- Year Escalation 4
  1.0541,                                 !- Year Escalation 5
  1.0928,                                 !- Year Escalation 6
  1.1267,                                 !- Year Escalation 7
  1.1580,                                 !- Year Escalation 8
  1.1792,                                 !- Year Escalation 9
  1.1967,                                 !- Year Escalation 10
  1.2200,                                 !- Year Escalation 11
  1.2333,                                 !- Year Escalation 12
  1.2566,                                 !- Year Escalation 13
  1.2709,                                 !- Year Escalation 14
  1.2826,                                 !- Year Escalation 15
  1.2985,                                 !- Year Escalation 16
  1.3102,                                 !- Year Escalation 17
  1.3250,                                 !- Year Escalation 18
  1.3261,                                 !- Year Escalation 19
  1.3282,                                 !- Year Escalation 20
  1.3324,                                 !- Year Escalation 21
  1.3356,                                 !- Year Escalation 22
  1.3431,                                 !- Year Escalation 23
  1.3510,                                 !- Year Escalation 24
  1.3568,                                 !- Year Escalation 25
  1.3606,                                 !- Year Escalation 26
  1.3637,                                 !- Year Escalation 27
  1.3674,                                 !- Year Escalation 28
  1.3706,                                 !- Year Escalation 29
  1.3743;                                 !- Year Escalation 30

LifeCycleCost:UsePriceEscalation,
  U.S. Avg  Commercial-Residual Oil,      !- Name
  FuelOilNo2,                             !- Resource
  2011,                                   !- Escalation Start Year
  January,                                !- Escalation Start Month
  0.8469,                                 !- Year Escalation 1
  0.8257,                                 !- Year Escalation 2
  0.8681,                                 !- Year Escalation 3
  0.8988,                                 !- Year Escalation 4
  0.9289,                                 !- Year Escalation 5
  0.9604,                                 !- Year Escalation 6
  0.9897,                                 !- Year Escalation 7
  1.0075,                                 !- Year Escalation 8
  1.0314,                                 !- Year Escalation 9
  1.0554,                                 !- Year Escalation 10
  1.0861,                                 !- Year Escalation 11
  1.1278,                                 !- Year Escalation 12
  1.1497,                                 !- Year Escalation 13
  1.1620,                                 !- Year Escalation 14
  1.1743,                                 !- Year Escalation 15
  1.1852,                                 !- Year Escalation 16
  1.1948,                                 !- Year Escalation 17
  1.2037,                                 !- Year Escalation 18
  1.2071,                                 !- Year Escalation 19
  1.2119,                                 !- Year Escalation 20
  1.2139,                                 !- Year Escalation 21
  1.2194,                                 !- Year Escalation 22
  1.2276,                                 !- Year Escalation 23
  1.2365,                                 !- Year Escalation 24
  1.2420,                                 !- Year Escalation 25
  1.2461,                                 !- Year Escalation 26
  1.2509,                                 !- Year Escalation 27
  1.2550,                                 !- Year Escalation 28
  1.2591,                                 !- Year Escalation 29
  1.2638;                                 !- Year Escalation 30

LifeCycleCost:UsePriceEscalation,
  U.S. Avg  Commercial-Natural gas,       !- Name
  NaturalGas,                             !- Resource
  2011,                                   !- Escalation Start Year
  January,                                !- Escalation Start Month
  0.9823,                                 !- Year Escalation 1
  0.9557,                                 !- Year Escalation 2
  0.9279,                                 !- Year Escalation 3
  0.9257,                                 !- Year Escalation 4
  0.9346,                                 !- Year Escalation 5
  0.9412,                                 !- Year Escalation 6
  0.9512,                                 !- Year Escalation 7
  0.9645,                                 !- Year Escalation 8
  0.9856,                                 !- Year Escalation 9
  1.0067,                                 !- Year Escalation 10
  1.0222,                                 !- Year Escalation 11
  1.0410,                                 !- Year Escalation 12
  1.0610,                                 !- Year Escalation 13
  1.0787,                                 !- Year Escalation 14
  1.0942,                                 !- Year Escalation 15
  1.1098,                                 !- Year Escalation 16
  1.1220,                                 !- Year Escalation 17
  1.1308,                                 !- Year Escalation 18
  1.1386,                                 !- Year Escalation 19
  1.1486,                                 !- Year Escalation 20
  1.1619,                                 !- Year Escalation 21
  1.1763,                                 !- Year Escalation 22
  1.1918,                                 !- Year Escalation 23
  1.2118,                                 !- Year Escalation 24
  1.2284,                                 !- Year Escalation 25
  1.2439,                                 !- Year Escalation 26
  1.2605,                                 !- Year Escalation 27
  1.2772,                                 !- Year Escalation 28
  1.2938,                                 !- Year Escalation 29
  1.3115;                                 !- Year Escalation 30

LifeCycleCost:UsePriceEscalation,
  U.S. Avg  Commercial-Coal,              !- Name
  Coal,                                   !- Resource
  2011,                                   !- Escalation Start Year
  January,                                !- Escalation Start Month
  0.9970,                                 !- Year Escalation 1
  1.0089,                                 !- Year Escalation 2
  1.0089,                                 !- Year Escalation 3
  0.9941,                                 !- Year Escalation 4
  0.9941,                                 !- Year Escalation 5
  1.0000,                                 !- Year Escalation 6
  1.0030,                                 !- Year Escalation 7
  1.0059,                                 !- Year Escalation 8
  1.0089,                                 !- Year Escalation 9
  1.0119,                                 !- Year Escalation 10
  1.0148,                                 !- Year Escalation 11
  1.0178,                                 !- Year Escalation 12
  1.0208,                                 !- Year Escalation 13
  1.0267,                                 !- Year Escalation 14
  1.0297,                                 !- Year Escalation 15
  1.0356,                                 !- Year Escalation 16
  1.0415,                                 !- Year Escalation 17
  1.0534,                                 !- Year Escalation 18
  1.0564,                                 !- Year Escalation 19
  1.0593,                                 !- Year Escalation 20
  1.0653,                                 !- Year Escalation 21
  1.0712,                                 !- Year Escalation 22
  1.0742,                                 !- Year Escalation 23
  1.0801,                                 !- Year Escalation 24
  1.0831,                                 !- Year Escalation 25
  1.0831,                                 !- Year Escalation 26
  1.0861,                                 !- Year Escalation 27
  1.0890,                                 !- Year Escalation 28
  1.0920,                                 !- Year Escalation 29
  1.0950;                                 !- Year Escalation 30

Building,
  90.1-2010|Warehouse,                    !- Name
  0,                                      !- North Axis {deg}
  Urban,                                  !- Terrain
  0.04,                                   !- Loads Convergence Tolerance Value {W}
  0.2,                                    !- Temperature Convergence Tolerance Value {deltaC}
  FullInteriorAndExterior,                !- Solar Distribution
  25,                                     !- Maximum Number of Warmup Days
  6;                                      !- Minimum Number of Warmup Days

Zone,
  Zone Warehouse Bulk  - Story Ground,    !- Name
  -0,                                     !- Direction of Relative North {deg}
  -6.70906274229121,                      !- X Origin {m}
  -4.4727084948608,                       !- Y Origin {m}
  0,                                      !- Z Origin {m}
  ,                                       !- Type
  1,                                      !- Multiplier
  ,                                       !- Ceiling Height {m}
  ,                                       !- Volume {m3}
  ,                                       !- Floor Area {m2}
  ,                                       !- Zone Inside Convection Algorithm
  ,                                       !- Zone Outside Convection Algorithm
  Yes;                                    !- Part of Total Floor Area

Space,
  Warehouse Bulk  - Story Ground,         !- Name
  Zone Warehouse Bulk  - Story Ground,    !- Zone Name
  ,                                       !- Ceiling Height {m}
  ,                                       !- Volume {m3}
  ,                                       !- Floor Area {m2}
  Warehouse Bulk - 90.1-2010;             !- Space Type

SpaceList,
  Warehouse Bulk - 90.1-2010,             !- Name
  Warehouse Bulk  - Story Ground;         !- Space Name 1

Lights,
  Warehouse Bulk Lights,                  !- Name
  Warehouse Bulk - 90.1-2010,             !- Zone or ZoneList or Space or SpaceList Name
  Warehouse BLDG_LIGHT_STORAGE_SCH,       !- Schedule Name
  Watts/Area,                             !- Design Level Calculation Method
  ,                                       !- Lighting Level {W}
  6.24306804169164,                       !- Watts per Zone Floor Area {W/m2}
  ,                                       !- Watts per Person {W/person}
  0,                                      !- Return Air Fraction
  0.42,                                   !- Fraction Radiant
  0.18,                                   !- Fraction Visible
  1,                                      !- Fraction Replaceable
  General;                                !- End-Use Subcategory

ScheduleTypeLimits,
  Fractional,                             !- Name
  0,                                      !- Lower Limit Value {BasedOnField A3}
  1,                                      !- Upper Limit Value {BasedOnField A3}
  Continuous;                             !- Numeric Type

Schedule:Day:Interval,
  Warehouse BLDG_LIGHT_STORAGE_SCH Default, !- Name
  Fractional,                             !- Schedule Type Limits Name
  Average,                                !- Interpolate to Timestep
  24:00,                                  !- Time 1 {hh:mm}
  0.1;                                    !- Value Until Time 1

Schedule:Day:Interval,
  Warehouse BLDG_LIGHT_STORAGE_SCH Sat|Wkdy Day, !- Name
  Fractional,                             !- Schedule Type Limits Name
  Average,                                !- Interpolate to Timestep
  06:30,                                  !- Time 1 {hh:mm}
  0.1,                                    !- Value Until Time 1
  06:40,                                  !- Time 2 {hh:mm}
  0.183333333333333,                      !- Value Until Time 2
  06:50,                                  !- Time 3 {hh:mm}
  0.266666666666667,                      !- Value Until Time 3
  07:00,                                  !- Time 4 {hh:mm}
  0.35,                                   !- Value Until Time 4
  07:10,                                  !- Time 5 {hh:mm}
  0.433333333333334,                      !- Value Until Time 5
  07:20,                                  !- Time 6 {hh:mm}
  0.516666666666667,                      !- Value Until Time 6
  07:30,                                  !- Time 7 {hh:mm}
  0.6,                                    !- Value Until Time 7
  07:40,                                  !- Time 8 {hh:mm}
  0.625,                                  !- Value Until Time 8
  07:50,                                  !- Time 9 {hh:mm}
  0.65,                                   !- Value Until Time 9
  08:00,                                  !- Time 10 {hh:mm}
  0.675,                                  !- Value Until Time 10
  08:09,                                  !- Time 11 {hh:mm}
  0.7,                                    !- Value Until Time 11
  08:19,                                  !- Time 12 {hh:mm}
  0.725,                                  !- Value Until Time 12
  08:29,                                  !- Time 13 {hh:mm}
  0.75,                                   !- Value Until Time 13
  08:30,                                  !- Time 14 {hh:mm}
  0.75,                                   !- Value Until Time 14
  08:39,                                  !- Time 15 {hh:mm}
  0.766666666666667,                      !- Value Until Time 15
  08:49,                                  !- Time 16 {hh:mm}
  0.783333333333333,                      !- Value Until Time 16
  08:59,                                  !- Time 17 {hh:mm}
  0.8,                                    !- Value Until Time 17
  09:09,                                  !- Time 18 {hh:mm}
  0.816666666666666,                      !- Value Until Time 18
  09:19,                                  !- Time 19 {hh:mm}
  0.833333333333333,                      !- Value Until Time 19
  09:29,                                  !- Time 20 {hh:mm}
  0.85,                                   !- Value Until Time 20
  09:30,                                  !- Time 21 {hh:mm}
  0.85,                                   !- Value Until Time 21
  15:30,                                  !- Time 22 {hh:mm}
  0.85,                                   !- Value Until Time 22
  15:39,                                  !- Time 23 {hh:mm}
  0.833333333333333,                      !- Value Until Time 23
  15:49,                                  !- Time 24 {hh:mm}
  0.816666666666667,                      !- Value Until Time 24
  15:59,                                  !- Time 25 {hh:mm}
  0.8,                                    !- Value Until Time 25
  16:09,                                  !- Time 26 {hh:mm}
  0.783333333333334,                      !- Value Until Time 26
  16:19,                                  !- Time 27 {hh:mm}
  0.766666666666667,                      !- Value Until Time 27
  16:30,                                  !- Time 28 {hh:mm}
  0.75,                                   !- Value Until Time 28
  16:40,                                  !- Time 29 {hh:mm}
  0.725,                                  !- Value Until Time 29
  16:50,                                  !- Time 30 {hh:mm}
  0.7,                                    !- Value Until Time 30
  17:00,                                  !- Time 31 {hh:mm}
  0.674999999999999,                      !- Value Until Time 31
  17:10,                                  !- Time 32 {hh:mm}
  0.649999999999999,                      !- Value Until Time 32
  17:20,                                  !- Time 33 {hh:mm}
  0.624999999999999,                      !- Value Until Time 33
  17:30,                                  !- Time 34 {hh:mm}
  0.6,                                    !- Value Until Time 34
  17:40,                                  !- Time 35 {hh:mm}
  0.516666666666666,                      !- Value Until Time 35
  17:50,                                  !- Time 36 {hh:mm}
  0.433333333333332,                      !- Value Until Time 36
  18:00,                                  !- Time 37 {hh:mm}
  0.349999999999998,                      !- Value Until Time 37
  18:10,                                  !- Time 38 {hh:mm}
  0.266666666666664,                      !- Value Until Time 38
  18:20,                                  !- Time 39 {hh:mm}
  0.18333333333333,                       !- Value Until Time 39
  18:30,                                  !- Time 40 {hh:mm}
  0.1,                                    !- Value Until Time 40
  24:00,                                  !- Time 41 {hh:mm}
  0.1;                                    !- Value Until Time 41

Schedule:Day:Interval,
  autogen Schedule Rule 22 1_day_sch,     !- Name
  Fractional,                             !- Schedule Type Limits Name
  Average,                                !- Interpolate to Timestep
  06:30,                                  !- Time 1 {hh:mm}
  0.1,                                    !- Value Until Time 1
  06:40,                                  !- Time 2 {hh:mm}
  0.183333333333333,                      !- Value Until Time 2
  06:50,                                  !- Time 3 {hh:mm}
  0.266666666666667,                      !- Value Until Time 3
  07:00,                                  !- Time 4 {hh:mm}
  0.35,                                   !- Value Until Time 4
  07:10,                                  !- Time 5 {hh:mm}
  0.433333333333334,                      !- Value Until Time 5
  07:20,                                  !- Time 6 {hh:mm}
  0.516666666666667,                      !- Value Until Time 6
  07:30,                                  !- Time 7 {hh:mm}
  0.6,                                    !- Value Until Time 7
  07:40,                                  !- Time 8 {hh:mm}
  0.625,                                  !- Value Until Time 8
  07:50,                                  !- Time 9 {hh:mm}
  0.65,                                   !- Value Until Time 9
  08:00,                                  !- Time 10 {hh:mm}
  0.675,                                  !- Value Until Time 10
  08:09,                                  !- Time 11 {hh:mm}
  0.7,                                    !- Value Until Time 11
  08:19,                                  !- Time 12 {hh:mm}
  0.725,                                  !- Value Until Time 12
  08:29,                                  !- Time 13 {hh:mm}
  0.75,                                   !- Value Until Time 13
  08:30,                                  !- Time 14 {hh:mm}
  0.75,                                   !- Value Until Time 14
  08:39,                                  !- Time 15 {hh:mm}
  0.766666666666667,                      !- Value Until Time 15
  08:49,                                  !- Time 16 {hh:mm}
  0.783333333333333,                      !- Value Until Time 16
  08:59,                                  !- Time 17 {hh:mm}
  0.8,                                    !- Value Until Time 17
  09:09,                                  !- Time 18 {hh:mm}
  0.816666666666666,                      !- Value Until Time 18
  09:19,                                  !- Time 19 {hh:mm}
  0.833333333333333,                      !- Value Until Time 19
  09:29,                                  !- Time 20 {hh:mm}
  0.85,                                   !- Value Until Time 20
  09:30,                                  !- Time 21 {hh:mm}
  0.85,                                   !- Value Until Time 21
  15:30,                                  !- Time 22 {hh:mm}
  0.85,                                   !- Value Until Time 22
  15:39,                                  !- Time 23 {hh:mm}
  0.833333333333333,                      !- Value Until Time 23
  15:49,                                  !- Time 24 {hh:mm}
  0.816666666666667,                      !- Value Until Time 24
  15:59,                                  !- Time 25 {hh:mm}
  0.8,                                    !- Value Until Time 25
  16:09,                                  !- Time 26 {hh:mm}
  0.783333333333334,                      !- Value Until Time 26
  16:19,                                  !- Time 27 {hh:mm}
  0.766666666666667,                      !- Value Until Time 27
  16:30,                                  !- Time 28 {hh:mm}
  0.75,                                   !- Value Until Time 28
  16:40,                                  !- Time 29 {hh:mm}
  0.725,                                  !- Value Until Time 29
  16:50,                                  !- Time 30 {hh:mm}
  0.7,                                    !- Value Until Time 30
  17:00,                                  !- Time 31 {hh:mm}
  0.674999999999999,                      !- Value Until Time 31
  17:10,                                  !- Time 32 {hh:mm}
  0.649999999999999,                      !- Value Until Time 32
  17:20,                                  !- Time 33 {hh:mm}
  0.624999999999999,                      !- Value Until Time 33
  17:30,                                  !- Time 34 {hh:mm}
  0.6,                                    !- Value Until Time 34
  17:40,                                  !- Time 35 {hh:mm}
  0.516666666666666,                      !- Value Until Time 35
  17:50,                                  !- Time 36 {hh:mm}
  0.433333333333332,                      !- Value Until Time 36
  18:00,                                  !- Time 37 {hh:mm}
  0.349999999999998,                      !- Value Until Time 37
  18:10,                                  !- Time 38 {hh:mm}
  0.266666666666664,                      !- Value Until Time 38
  18:20,                                  !- Time 39 {hh:mm}
  0.18333333333333,                       !- Value Until Time 39
  18:30,                                  !- Time 40 {hh:mm}
  0.1,                                    !- Value Until Time 40
  24:00,                                  !- Time 41 {hh:mm}
  0.1;                                    !- Value Until Time 41

Schedule:Week:Daily,
  Warehouse BLDG_LIGHT_STORAGE_SCH Week Rule - Jan1-Mar4, !- Name
  Warehouse BLDG_LIGHT_STORAGE_SCH Default, !- Sunday Schedule:Day Name
  Warehouse BLDG_LIGHT_STORAGE_SCH Sat|Wkdy Day, !- Monday Schedule:Day Name
  Warehouse BLDG_LIGHT_STORAGE_SCH Sat|Wkdy Day, !- Tuesday Schedule:Day Name
  Warehouse BLDG_LIGHT_STORAGE_SCH Sat|Wkdy Day, !- Wednesday Schedule:Day Name
  Warehouse BLDG_LIGHT_STORAGE_SCH Sat|Wkdy Day, !- Thursday Schedule:Day Name
  Warehouse BLDG_LIGHT_STORAGE_SCH Sat|Wkdy Day, !- Friday Schedule:Day Name
  Warehouse BLDG_LIGHT_STORAGE_SCH Sat|Wkdy Day, !- Saturday Schedule:Day Name
  Warehouse BLDG_LIGHT_STORAGE_SCH Default, !- Holiday Schedule:Day Name
  Warehouse BLDG_LIGHT_STORAGE_SCH Summer Design Day, !- SummerDesignDay Schedule:Day Name
  Warehouse BLDG_LIGHT_STORAGE_SCH Winter Design Day, !- WinterDesignDay Schedule:Day Name
  Warehouse BLDG_LIGHT_STORAGE_SCH Default, !- CustomDay1 Schedule:Day Name
  Warehouse BLDG_LIGHT_STORAGE_SCH Default; !- CustomDay2 Schedule:Day Name

Schedule:Day:Interval,
  Schedule Day 18,                        !- Name
  Fractional,                             !- Schedule Type Limits Name
  No,                                     !- Interpolate to Timestep
  01:00,                                  !- Time 1 {hh:mm}
  0.0153849278094973,                     !- Value Until Time 1
  02:00,                                  !- Time 2 {hh:mm}
  0.0307694863895887,                     !- Value Until Time 2
  03:00,                                  !- Time 3 {hh:mm}
  0.0461540449696801,                     !- Value Until Time 3
  04:00,                                  !- Time 4 {hh:mm}
  0.0615386035497715,                     !- Value Until Time 4
  05:00,                                  !- Time 5 {hh:mm}
  0.0769231621298629,                     !- Value Until Time 5
  06:00,                                  !- Time 6 {hh:mm}
  0.0923077207099543,                     !- Value Until Time 6
  07:00,                                  !- Time 7 {hh:mm}
  0.35,                                   !- Value Until Time 7
  08:00,                                  !- Time 8 {hh:mm}
  0.675,                                  !- Value Until Time 8
  09:00,                                  !- Time 9 {hh:mm}
  0.801666666666667,                      !- Value Until Time 9
  10:00,                                  !- Time 10 {hh:mm}
  0.85,                                   !- Value Until Time 10
  11:00,                                  !- Time 11 {hh:mm}
  0.85,                                   !- Value Until Time 11
  12:00,                                  !- Time 12 {hh:mm}
  0.85,                                   !- Value Until Time 12
  13:00,                                  !- Time 13 {hh:mm}
  0.85,                                   !- Value Until Time 13
  14:00,                                  !- Time 14 {hh:mm}
  0.85,                                   !- Value Until Time 14
  15:00,                                  !- Time 15 {hh:mm}
  0.85,                                   !- Value Until Time 15
  16:00,                                  !- Time 16 {hh:mm}
  0.798333333333333,                      !- Value Until Time 16
  17:00,                                  !- Time 17 {hh:mm}
  0,                                      !- Value Until Time 17
  18:00,                                  !- Time 18 {hh:mm}
  0,                                      !- Value Until Time 18
  19:00,                                  !- Time 19 {hh:mm}
  0,                                      !- Value Until Time 19
  20:00,                                  !- Time 20 {hh:mm}
  0,                                      !- Value Until Time 20
  21:00,                                  !- Time 21 {hh:mm}
  0.1,                                    !- Value Until Time 21
  22:00,                                  !- Time 22 {hh:mm}
  0.1,                                    !- Value Until Time 22