
Version,
  22.2;                                   !- Version Identifier

Timestep,
  6;                                      !- Number of Timesteps per Hour

LifeCycleCost:Parameters,
  Life Cycle Cost Parameters,             !- Name
  EndOfYear,                              !- Discounting Convention
  ConstantDollar,                         !- Inflation Approach
  0.03,                                   !- Real Discount Rate
  ,                                       !- Nominal Discount Rate
  ,                                       !- Inflation
  ,                                       !- Base Date Month
  2011,                                   !- Base Date Year
  ,                                       !- Service Date Month
  2011,                                   !- Service Date Year
  25,                                     !- Length of Study Period in Years
  ,                                       !- Tax rate
  None;                                   !- Depreciation Method

LifeCycleCost:UsePriceEscalation,
  U.S. Avg  Commercial-Electricity,       !- Name
  Electricity,                            !- Resource
  2011,                                   !- Escalation Start Year
  January,                                !- Escalation Start Month
  0.9838,                                 !- Year Escalation 1
  0.9730,                                 !- Year Escalation 2
  0.9632,                                 !- Year Escalation 3
  0.9611,                                 !- Year Escalation 4
  0.9571,                                 !- Year Escalation 5
  0.9553,                                 !- Year Escalation 6
  0.9539,                                 !- Year Escalation 7
  0.9521,                                 !- Year Escalation 8
  0.9546,                                 !- Year Escalation 9
  0.9550,                                 !- Year Escalation 10
  0.9553,                                 !- Year Escalation 11
  0.9564,                                 !- Year Escalation 12
  0.9575,                                 !- Year Escalation 13
  0.9596,                                 !- Year Escalation 14
  0.9618,                                 !- Year Escalation 15
  0.9614,                                 !- Year Escalation 16
  0.9618,                                 !- Year Escalation 17
  0.9618,                                 !- Year Escalation 18
  0.9593,                                 !- Year Escalation 19
  0.9589,                                 !- Year Escalation 20
  0.9607,                                 !- Year Escalation 21
  0.9625,                                 !- Year Escalation 22
  0.9650,                                 !- Year Escalation 23
  0.9708,                                 !- Year Escalation 24
  0.9751,                                 !- Year Escalation 25
  0.9762,                                 !- Year Escalation 26
  0.9766,                                 !- Year Escalation 27
  0.9766,                                 !- Year Escalation 28
  0.9769,                                 !- Year Escalation 29
  0.9773;                                 !- Year Escalation 30

LifeCycleCost:UsePriceEscalation,
  U.S. Avg  Commercial-Distillate Oil,    !- Name
  FuelOilNo1,                             !- Resource
  2011,                                   !- Escalation Start Year
  January,                                !- Escalation Start Month
  0.9714,                                 !- Year Escalation 1
  0.9730,                                 !- Year Escalation 2
  0.9942,                                 !- Year Escalation 3
  1.0164,                                 !- Year Escalation 4
  1.0541,                                 !- Year Escalation 5
  1.0928,                                 !- Year Escalation 6
  1.1267,                                 !- Year Escalation 7
  1.1580,                                 !- Year Escalation 8
  1.1792,                                 !- Year Escalation 9
  1.1967,                                 !- Year Escalation 10
  1.2200,                                 !- Year Escalation 11
  1.2333,                                 !- Year Escalation 12
  1.2566,                                 !- Year Escalation 13
  1.2709,                                 !- Year Escalation 14
  1.2826,                                 !- Year Escalation 15
  1.2985,                                 !- Year Escalation 16
  1.3102,                                 !- Year Escalation 17
  1.3250,                                 !- Year Escalation 18
  1.3261,                                 !- Year Escalation 19
  1.3282,                                 !- Year Escalation 20
  1.3324,                                 !- Year Escalation 21
  1.3356,                                 !- Year Escalation 22
  1.3431,                                 !- Year Escalation 23
  1.3510,                                 !- Year Escalation 24
  1.3568,                                 !- Year Escalation 25
  1.3606,                                 !- Year Escalation 26
  1.3637,                                 !- Year Escalation 27
  1.3674,                                 !- Year Escalation 28
  1.3706,                                 !- Year Escalation 29
  1.3743;                                 !- Year Escalation 30

LifeCycleCost:UsePriceEscalation,
  U.S. Avg  Commercial-Residual Oil,      !- Name
  FuelOilNo2,                             !- Resource
  2011,                                   !- Escalation Start Year
  January,                                !- Escalation Start Month
  0.8469,                                 !- Year Escalation 1
  0.8257,                                 !- Year Escalation 2
  0.8681,                                 !- Year Escalation 3
  0.8988,                                 !- Year Escalation 4
  0.9289,                                 !- Year Escalation 5
  0.9604,                                 !- Year Escalation 6
  0.9897,                                 !- Year Escalation 7
  1.0075,                                 !- Year Escalation 8
  1.0314,                                 !- Year Escalation 9
  1.0554,                                 !- Year Escalation 10
  1.0861,                                 !- Year Escalation 11
  1.1278,                                 !- Year Escalation 12
  1.1497,                                 !- Year Escalation 13
  1.1620,                                 !- Year Escalation 14
  1.1743,                                 !- Year Escalation 15
  1.1852,                                 !- Year Escalation 16
  1.1948,                                 !- Year Escalation 17
  1.2037,                                 !- Year Escalation 18
  1.2071,                                 !- Year Escalation 19
  1.2119,                                 !- Year Escalation 20
  1.2139,                                 !- Year Escalation 21
  1.2194,                                 !- Year Escalation 22
  1.2276,                                 !- Year Escalation 23
  1.2365,                                 !- Year Escalation 24
  1.2420,                                 !- Year Escalation 25
  1.2461,                                 !- Year Escalation 26
  1.2509,                                 !- Year Escalation 27
  1.2550,                                 !- Year Escalation 28
  1.2591,                                 !- Year Escalation 29
  1.2638;                                 !- Year Escalation 30

LifeCycleCost:UsePriceEscalation,
  U.S. Avg  Commercial-Natural gas,       !- Name
  NaturalGas,                             !- Resource
  2011,                                   !- Escalation Start Year
  January,                                !- Escalation Start Month
  0.9823,                                 !- Year Escalation 1
  0.9557,                                 !- Year Escalation 2
  0.9279,                                 !- Year Escalation 3
  0.9257,                                 !- Year Escalation 4
  0.9346,                                 !- Year Escalation 5
  0.9412,                                 !- Year Escalation 6
  0.9512,                                 !- Year Escalation 7
  0.9645,                                 !- Year Escalation 8
  0.9856,                                 !- Year Escalation 9
  1.0067,                                 !- Year Escalation 10
  1.0222,                                 !- Year Escalation 11
  1.0410,                                 !- Year Escalation 12
  1.0610,                                 !- Year Escalation 13
  1.0787,                                 !- Year Escalation 14
  1.0942,                                 !- Year Escalation 15
  1.1098,                                 !- Year Escalation 16
  1.1220,                                 !- Year Escalation 17
  1.1308,                                 !- Year Escalation 18
  1.1386,                                 !- Year Escalation 19
  1.1486,                                 !- Year Escalation 20
  1.1619,                                 !- Year Escalation 21
  1.1763,                                 !- Year Escalation 22
  1.1918,                                 !- Year Escalation 23
  1.2118,                                 !- Year Escalation 24
  1.2284,                                 !- Year Escalation 25
  1.2439,                                 !- Year Escalation 26
  1.2605,                                 !- Year Escalation 27
  1.2772,                                 !- Year Escalation 28
  1.2938,                                 !- Year Escalation 29
  1.3115;                                 !- Year Escalation 30

LifeCycleCost:UsePriceEscalation,
  U.S. Avg  Commercial-Coal,              !- Name
  Coal,                                   !- Resource
  2011,                                   !- Escalation Start Year
  January,                                !- Escalation Start Month
  0.9970,                                 !- Year Escalation 1
  1.0089,                                 !- Year Escalation 2
  1.0089,                                 !- Year Escalation 3
  0.9941,                                 !- Year Escalation 4
  0.9941,                                 !- Year Escalation 5
  1.0000,                                 !- Year Escalation 6
  1.0030,                                 !- Year Escalation 7
  1.0059,                                 !- Year Escalation 8
  1.0089,                                 !- Year Escalation 9
  1.0119,                                 !- Year Escalation 10
  1.0148,                                 !- Year Escalation 11
  1.0178,                                 !- Year Escalation 12
  1.0208,                                 !- Year Escalation 13
  1.0267,                                 !- Year Escalation 14
  1.0297,                                 !- Year Escalation 15
  1.0356,                                 !- Year Escalation 16
  1.0415,                                 !- Year Escalation 17
  1.0534,                                 !- Year Escalation 18
  1.0564,                                 !- Year Escalation 19
  1.0593,                                 !- Year Escalation 20
  1.0653,                                 !- Year Escalation 21
  1.0712,                                 !- Year Escalation 22
  1.0742,                                 !- Year Escalation 23
  1.0801,                                 !- Year Escalation 24
  1.0831,                                 !- Year Escalation 25
  1.0831,                                 !- Year Escalation 26
  1.0861,                                 !- Year Escalation 27
  1.0890,                                 !- Year Escalation 28
  1.0920,                                 !- Year Escalation 29
  1.0950;                                 !- Year Escalation 30

Building,
  90.1-2010|SmallOffice,                  !- Name
  0,                                      !- North Axis {deg}
  City,                                   !- Terrain
  0.04,                                   !- Loads Convergence Tolerance Value {W}
  0.2,                                    !- Temperature Convergence Tolerance Value {deltaC}
  FullInteriorAndExterior,                !- Solar Distribution
  25,                                     !- Maximum Number of Warmup Days
  6;                                      !- Minimum Number of Warmup Days

Zone,
  Zone Office WholeBuilding - Sm Office 2 A  - Story Ground, !- Name
  -0,                                     !- Direction of Relative North {deg}
  -14.2325791231817,                      !- X Origin {m}
  -12.5363860821211,                      !- Y Origin {m}
  0,                                      !- Z Origin {m}
  ,                                       !- Type
  1,                                      !- Multiplier
  ,                                       !- Ceiling Height {m}
  ,                                       !- Volume {m3}
  ,                                       !- Floor Area {m2}
  ,                                       !- Zone Inside Convection Algorithm
  ,                                       !- Zone Outside Convection Algorithm
  Yes;                                    !- Part of Total Floor Area

Space,
  Office WholeBuilding - Sm Office 2 A  - Story Ground, !- Name
  Zone Office WholeBuilding - Sm Office 2 A  - Story Ground, !- Zone Name
  ,                                       !- Ceiling Height {m}
  ,                                       !- Volume {m3}
  ,                                       !- Floor Area {m2}
  Office WholeBuilding - Sm Office 2 - 90.1-2010; !- Space Type

SpaceList,
  Office WholeBuilding - Sm Office 2 - 90.1-2010, !- Name
  Office WholeBuilding - Sm Office 2 A end_a - Story Ground, !- Space Name 1
  Office WholeBuilding - Sm Office 2 C end_a - Story Ground, !- Space Name 2
  Office WholeBuilding - Sm Office 2 A  - Story Ground, !- Space Name 3
  Office WholeBuilding - Sm Office 2 B end_a - Story Ground, !- Space Name 4
  Office WholeBuilding - Sm Office 2 B  - Story Ground, !- Space Name 5
  Office WholeBuilding - Sm Office 2 C  - Story Ground, !- Space Name 6
  Office WholeBuilding - Sm Office 2 B end_b - Story Ground, !- Space Name 7
  Office WholeBuilding - Sm Office 2 A end_b - Story Ground, !- Space Name 8
  Office WholeBuilding - Sm Office 2 C end_b - Story Ground; !- Space Name 9

Lights,
  Office WholeBuilding - Sm Office 2 Lights, !- Name
  Office WholeBuilding - Sm Office 2 - 90.1-2010, !- Zone or ZoneList or Space or SpaceList Name
  OfficeSmall BLDG_LIGHT_SCH_2010,        !- Schedule Name
  Watts/Area,                             !- Design Level Calculation Method
  ,                                       !- Lighting Level {W}
  9.68751937503875,                       !- Watts per Zone Floor Area {W/m2}
  ,                                       !- Watts per Person {W/person}
  0,                                      !- Return Air Fraction
  0.7,                                    !- Fraction Radiant
  0.2,                                    !- Fraction Visible
  1,                                      !- Fraction Replaceable
  General;                                !- End-Use Subcategory

ScheduleTypeLimits,
  Fractional,                             !- Name
  0,                                      !- Lower Limit Value {BasedOnField A3}
  1,                                      !- Upper Limit Value {BasedOnField A3}
  Continuous;                             !- Numeric Type

Schedule:Day:Interval,
  OfficeSmall BLDG_LIGHT_SCH_2010 Default|Wkdy Day, !- Name
  Fractional,                             !- Schedule Type Limits Name
  No,                                     !- Interpolate to Timestep
  05:00,                                  !- Time 1 {hh:mm}
  0.18,                                   !- Value Until Time 1
  06:00,                                  !- Time 2 {hh:mm}
  0.23,                                   !- Value Until Time 2
  07:00,                                  !- Time 3 {hh:mm}
  0.187059,                               !- Value Until Time 3
  08:00,                                  !- Time 4 {hh:mm}
  0.341586,                               !- Value Until Time 4
  12:00,                                  !- Time 5 {hh:mm}
  0.73197,                                !- Value Until Time 5
  13:00,                                  !- Time 6 {hh:mm}
  0.65064,                                !- Value Until Time 6
  17:00,                                  !- Time 7 {hh:mm}
  0.73197,                                !- Value Until Time 7
  18:00,                                  !- Time 8 {hh:mm}
  0.496113,                               !- Value Until Time 8
  20:00,                                  !- Time 9 {hh:mm}
  0.341586,                               !- Value Until Time 9
  22:00,                                  !- Time 10 {hh:mm}
  0.260256,                               !- Value Until Time 10
  23:00,                                  !- Time 11 {hh:mm}
  0.187059,                               !- Value Until Time 11
  24:00,                                  !- Time 12 {hh:mm}
  0.18;                                   !- Value Until Time 12

Schedule:Day:Interval,
  OfficeSmall BLDG_LIGHT_SCH_2010 Wknd Day, !- Name
  Fractional,                             !- Schedule Type Limits Name
  No,                                     !- Interpolate to Timestep
  24:00,                                  !- Time 1 {hh:mm}
  0.18;                                   !- Value Until Time 1

Schedule:Week:Daily,
  OfficeSmall BLDG_LIGHT_SCH_2010 Week Rule - Jan1-Jan4, !- Name
  OfficeSmall BLDG_LIGHT_SCH_2010 Default|Wkdy Day, !- Sunday Schedule:Day Name
  OfficeSmall BLDG_LIGHT_SCH_2010 Default|Wkdy Day, !- Monday Schedule:Day Name
  OfficeSmall BLDG_LIGHT_SCH_2010 Default|Wkdy Day, !- Tuesday Schedule:Day Name
  OfficeSmall BLDG_LIGHT_SCH_2010 Default|Wkdy Day, !- Wednesday Schedule:Day Name
  OfficeSmall BLDG_LIGHT_SCH_2010 Default|Wkdy Day, !- Thursday Schedule:Day Name
  OfficeSmall BLDG_LIGHT_SCH_2010 Default|Wkdy Day, !- Friday Schedule:Day Name
  OfficeSmall BLDG_LIGHT_SCH_2010 Wknd Day, !- Saturday Schedule:Day Name
  OfficeSmall BLDG_LIGHT_SCH_2010 Default, !- Holiday Schedule:Day Name
  OfficeSmall BLDG_LIGHT_SCH_2010 Summer Design Day, !- SummerDesignDay Schedule:Day Name
  OfficeSmall BLDG_LIGHT_SCH_2010 Winter Design Day, !- WinterDesignDay Schedule:Day Name
  OfficeSmall BLDG_LIGHT_SCH_2010 Default, !- CustomDay1 Schedule:Day Name
  OfficeSmall BLDG_LIGHT_SCH_2010 Default; !- CustomDay2 Schedule:Day Name

Schedule:Week:Daily,
  OfficeSmall BLDG_LIGHT_SCH_2010 Week Rule - Jan5-Dec31, !- Name
  OfficeSmall BLDG_LIGHT_SCH_2010 Wknd Day, !- Sunday Schedule:Day Name
  OfficeSmall BLDG_LIGHT_SCH_2010 Default|Wkdy Day, !- Monday Schedule:Day Name
  OfficeSmall BLDG_LIGHT_SCH_2010 Default|Wkdy Day, !- Tuesday Schedule:Day Name
  OfficeSmall BLDG_LIGHT_SCH_2010 Default|Wkdy Day, !- Wednesday Schedule:Day Name
  OfficeSmall BLDG_LIGHT_SCH_2010 Default|Wkdy Day, !- Thursday Schedule:Day Name
  OfficeSmall BLDG_LIGHT_SCH_2010 Default|Wkdy Day, !- Friday Schedule:Day Name
  OfficeSmall BLDG_LIGHT_SCH_2010 Wknd Day, !- Saturday Schedule:Day Name
  OfficeSmall BLDG_LIGHT_SCH_2010 Default, !- Holiday Schedule:Day Name
  OfficeSmall BLDG_LIGHT_SCH_2010 Summer Design Day, !- SummerDesignDay Schedule:Day Name
  OfficeSmall BLDG_LIGHT_SCH_2010 Winter Design Day, !- WinterDesignDay Schedule:Day Name
  OfficeSmall BLDG_LIGHT_SCH_2010 Default, !- CustomDay1 Schedule:Day Name
  OfficeSmall BLDG_LIGHT_SCH_2010 Default; !- CustomDay2 Schedule:Day Name

Schedule:Year,
  OfficeSmall BLDG_LIGHT_SCH_2010,        !- Name
  Fractional,                             !- Schedule Type Limits Name
  OfficeSmall BLDG_LIGHT_SCH_2010 Week Rule - Jan1-Jan4, !- Schedule:Week Name 1
  1,                                      !- Start Month 1
  1,                                      !- Start Day 1
  1,                                      !- End Month 1
  4,                                      !- End Day 1
  OfficeSmall BLDG_LIGHT_SCH_2010 Week Rule - Jan5-Dec31, !- Schedule:Week Name 2
  1,                                      !- Start Month 2
  5,                                      !- Start Day 2
  12,                                     !- End Month 2
  31;                                     !- End Day 2

Schedule:Day:Interval,
  OfficeSmall BLDG_LIGHT_SCH_2010 Default, !- Name
  Fractional,                             !- Schedule Type Limits Name
  No,                                     !- Interpolate to Timestep
  05:00,                                  !- Time 1 {hh:mm}
  0.18,                                   !- Value Until Time 1
  06:00,                                  !- Time 2 {hh:mm}
  0.23,                                   !- Value Until Time 2
  07:00,                                  !- Time 3 {hh:mm}
  0.187059,                               !- Value Until Time 3
  08:00,                                  !- Time 4 {hh:mm}
  0.341586,                               !- Value Until Time 4
  12:00,                                  !- Time 5 {hh:mm}
  0.73197,                                !- Value Until Time 5
  13:00,                                  !- Time 6 {hh:mm}
  0.65064,                                !- Value Until Time 6
  17:00,                                  !- Time 7 {hh:mm}
  0.73197,                                !- Value Until Time 7
  18:00,                                  !- Time 8 {hh:mm}
  0.496113,                               !- Value Until Time 8
  20:00,                                  !- Time 9 {hh:mm}
  0.341586,                               !- Value Until Time 9
  22:00,                                  !- Time 10 {hh:mm}
  0.260256,                               !- Value Until Time 10
  23:00,                                  !- Time 11 {hh:mm}
  0.187059,                               !- Value Until Time 11
  24:00,                                  !- Time 12 {hh:mm}
  0.18;                                   !- Value Until Time 12

Schedule:Day:Interval,
  OfficeSmall BLDG_LIGHT_SCH_2010 Summer Design Day, !- Name
  Fractional,                             !- Schedule Type Limits Name
  No,                                     !- Interpolate to Timestep
  24:00,                                  !- Time 1 {hh:mm}
  1;                                      !- Value Until Time 1

Schedule:Day:Interval,
  OfficeSmall BLDG_LIGHT_SCH_2010 Winter Design Day, !- Name
  Fractional,                             !- Schedule Type Limits Name
  No,                                     !- Interpolate to Timestep
  24:00,                                  !- Time 1 {hh:mm}
  0;                                      !- Value Until Time 1

People,
  Office WholeBuilding - Sm Office 2 People, !- Name
  Office WholeBuilding - Sm Office 2 - 90.1-2010, !- Zone or ZoneList or Space or SpaceList Name
  OfficeSmall BLDG_OCC_SCH,               !- Number of People Schedule Name
  People/Area,                            !- Number of People Calculation Method
  ,                                       !- Number of People
  0.0602778983335744,                     !- People per Floor Area {person/m2}
  ,                                       !- Floor Area per Person {m2/person}
  0.3,                                    !- Fraction Radiant
  ,                                       !- Sensible Heat Fraction
  OfficeSmall ACTIVITY_SCH,               !- Activity Level Schedule Name
  ,                                       !- Carbon Dioxide Generation Rate {m3/s-W}
  ,                                       !- Enable ASHRAE 55 Comfort Warnings
  ,                                       !- Mean Radiant Temperature Calculation Type
  ,                                       !- Surface Name/Angle Factor List Name
  Work Efficiency Schedule,               !- Work Efficiency Schedule Name
  ,                                       !- Clothing Insulation Calculation Method
  ,                                       !- Clothing Insulation Calculation Method Schedule Name
  Clothing Schedule,                      !- Clothing Insulation Schedule Name
  Air Velocity Schedule;                  !- Air Velocity Schedule Name

Schedule:Day:Interval,
  OfficeSmall BLDG_OCC_SCH Wkdy Day,      !- Name
  Fractional,                             !- Schedule Type Limits Name
  No,                                     !- Interpolate to Timestep
  06:00,                                  !- Time 1 {hh:mm}
  0.570791362568684,                      !- Value Until Time 1
  07:00,                                  !- Time 2 {hh:mm}
  0.56965888595277,                       !- Value Until Time 2
  08:00,                                  !- Time 3 {hh:mm}
  0.567393932720943,                      !- Value Until Time 3
  12:00,                                  !- Time 4 {hh:mm}
  0.568526409336857,                      !- Value Until Time 4
  13:00,                                  !- Time 5 {hh:mm}
  0.56965888595277,                       !- Value Until Time 5
  17:00,                                  !- Time 6 {hh:mm}
  0.56965888595277,                       !- Value Until Time 6
  18:00,                                  !- Time 7 {hh:mm}
  0.570791362568684,                      !- Value Until Time 7
  22:00,                                  !- Time 8 {hh:mm}
  0.570791362568684,                      !- Value Until Time 8
  23:00,                                  !- Time 9 {hh:mm}
  0.570791362568684,                      !- Value Until Time 9
  24:00,                                  !- Time 10 {hh:mm}
  0.570791362568684;                      !- Value Until Time 10

Schedule:Week:Daily,
  OfficeSmall BLDG_OCC_SCH Week Rule - Jan1-Dec31, !- Name
  OfficeSmall BLDG_OCC_SCH Wkdy Day,      !- Sunday Schedule:Day Name
  OfficeSmall BLDG_OCC_SCH Wkdy Day,      !- Monday Schedule:Day Name
  OfficeSmall BLDG_OCC_SCH Wkdy Day,      !- Tuesday Schedule:Day Name
  OfficeSmall BLDG_OCC_SCH Wkdy Day,      !- Wednesday Schedule:Day Name
  OfficeSmall BLDG_OCC_SCH Wkdy Day,      !- Thursday Schedule:Day Name
  OfficeSmall BLDG_OCC_SCH Wkdy Day,      !- Friday Schedule:Day Name
  OfficeSmall BLDG_OCC_SCH Wkdy Day,      !- Saturday Schedule:Day Name
  OfficeSmall BLDG_OCC_SCH Default,       !- Holiday Schedule:Day Name
  OfficeSmall BLDG_OCC_SCH Summer Design Day, !- SummerDesignDay Schedule:Day Name
  OfficeSmall BLDG_OCC_SCH Winter Design Day, !- WinterDesignDay Schedule:Day Name
  OfficeSmall BLDG_OCC_SCH Default,       !- CustomDay1 Schedule:Day Name
  OfficeSmall BLDG_OCC_SCH Default;       !- CustomDay2 Schedule:Day Name

Schedule:Year,
  OfficeSmall BLDG_OCC_SCH,               !- Name
  Fractional,                             !- Schedule Type Limits Name
  OfficeSmall BLDG_OCC_SCH Week Rule - Jan1-Dec31, !- Schedule:Week Name 1
  1,                                      !- Start Month 1
  1,                                      !- Start Day 1
  12,                                     !- End Month 1
  31;                                     !- End Day 1

Schedule:Day:Interval,
  OfficeSmall BLDG_OCC_SCH Default,       !- Name
  Fractional,                             !- Schedule Type Limits Name
  No,                                     !- Interpolate to Timestep
  24:00,                                  !- Time 1 {hh:mm}
  0;                                      !- Value Until Time 1

Schedule:Day:Interval,
  OfficeSmall BLDG_OCC_SCH Summer Design Day, !- Name
  Fractional,                             !- Schedule Type Limits Name
  No,                                     !- Interpolate to Timestep
  24:00,                                  !- Time 1 {hh:mm}
  1;                                      !- Value Until Time 1

Schedule:Day:Interval,
  OfficeSmall BLDG_OCC_SCH Winter Design Day, !- Name
  Fractional,                             !- Schedule Type Limits Name
  No,                                     !- Interpolate to Timestep
  24:00,                                  !- Time 1 {hh:mm}
  0;                                      !- Value Until Time 1

ScheduleTypeLimits,
  ActivityLevel,                          !- Name
  0,                                      !- Lower Limit Value {BasedOnField A3}
  ,                                       !- Upper Limit Value {BasedOnField A3}
  Continuous,                             !- Numeric Type
  activitylevel;                          !- Unit Type

Schedule:Day:Interval,
  OfficeSmall ACTIVITY_SCH Default,       !- Name
  ActivityLevel,                          !- Schedule Type Limits Name
  No,                                     !- Interpolate to Timestep
  24:00,                                  !- Time 1 {hh:mm}
  120;                                    !- Value Until Time 1

Schedule:Week:Daily,
  OfficeSmall ACTIVITY_SCH Week Rule - Jan1-Dec31, !- Name
  OfficeSmall ACTIVITY_SCH Default,       !- Sunday Schedule:Day Name
  OfficeSmall ACTIVITY_SCH Default,       !- Monday Schedule:Day Name
  OfficeSmall ACTIVITY_SCH Default,       !- Tuesday Schedule:Day Name
  OfficeSmall ACTIVITY_SCH Default,       !- Wednesday Schedule:Day Name
  OfficeSmall ACTIVITY_SCH Default,       !- Thursday Schedule:Day Name
  OfficeSmall ACTIVITY_SCH Default,       !- Friday Schedule:Day Name
  OfficeSmall ACTIVITY_SCH Default,       !- Saturday Schedule:Day Name
  OfficeSmall ACTIVITY_SCH Default,       !- Holiday Schedule:Day Name
  OfficeSmall ACTIVITY_SCH Summer Design Day, !- SummerDesignDay Schedule:Day Name
  OfficeSmall ACTIVITY_SCH Winter Design Day, !- WinterDesignDay Schedule:Day Name
  OfficeSmall ACTIVITY_SCH Default,       !- CustomDay1 Schedule:Day Name
  OfficeSmall ACTIVITY_SCH Default;       !- CustomDay2 Schedule:Day Name

Schedule:Year,
  OfficeSmall ACTIVITY_SCH,               !- Name